version 2
run OLSR-0-20140311-00:01:16-6640
attr configname OLSR
attr datetime 20140311-00:01:16
attr experiment OLSR
attr inifile omnetpp.ini
attr iterationvars ""
attr iterationvars2 $repetition=0
attr measurement ""
attr network ManetSim
attr processid 6640
attr repetition 0
attr replication #0
attr resultdir results
attr runnumber 0
attr seedset 0

scalar ManetSim.node[0].nic.phy80211p 	busyTime 	7.6132384276516e-006
scalar ManetSim.node[0].nic.mac1609_4 	ReceivedUnicastPackets 	0
scalar ManetSim.node[0].nic.mac1609_4 	ReceivedBroadcasts 	20
scalar ManetSim.node[0].nic.mac1609_4 	SentPackets 	1
scalar ManetSim.node[0].nic.mac1609_4 	SNIRLostPackets 	0
scalar ManetSim.node[0].nic.mac1609_4 	RXTXLostPackets 	0
scalar ManetSim.node[0].nic.mac1609_4 	TotalLostPackets 	0
scalar ManetSim.node[0].nic.mac1609_4 	DroppedPacketsInMac 	0
scalar ManetSim.node[0].nic.mac1609_4 	TooLittleTime 	0
scalar ManetSim.node[0].nic.mac1609_4 	TimesIntoBackoff 	1
scalar ManetSim.node[0].nic.mac1609_4 	SlotsBackoff 	0
scalar ManetSim.node[0].nic.mac1609_4 	NumInternalContention 	0
scalar ManetSim.node[0].nic.mac1609_4 	totalBusyTime 	0.002359999993
scalar ManetSim.node[0].mobility 	startTime 	0.1
scalar ManetSim.node[0].mobility 	totalTime 	295
scalar ManetSim.node[0].mobility 	stopTime 	295.2
scalar ManetSim.node[0].mobility 	minSpeed 	0
scalar ManetSim.node[0].mobility 	maxSpeed 	13.999975727196
scalar ManetSim.node[0].mobility 	totalDistance 	3409.6666840794
scalar ManetSim.node[0].mobility 	totalCO2Emission 	734.1330024847
scalar ManetSim.node[1].nic.phy80211p 	busyTime 	7.2227862165821e-006
scalar ManetSim.node[1].nic.mac1609_4 	ReceivedUnicastPackets 	0
scalar ManetSim.node[1].nic.mac1609_4 	ReceivedBroadcasts 	19
scalar ManetSim.node[1].nic.mac1609_4 	SentPackets 	1
scalar ManetSim.node[1].nic.mac1609_4 	SNIRLostPackets 	0
scalar ManetSim.node[1].nic.mac1609_4 	RXTXLostPackets 	0
scalar ManetSim.node[1].nic.mac1609_4 	TotalLostPackets 	0
scalar ManetSim.node[1].nic.mac1609_4 	DroppedPacketsInMac 	0
scalar ManetSim.node[1].nic.mac1609_4 	TooLittleTime 	0
scalar ManetSim.node[1].nic.mac1609_4 	TimesIntoBackoff 	1
scalar ManetSim.node[1].nic.mac1609_4 	SlotsBackoff 	1
scalar ManetSim.node[1].nic.mac1609_4 	NumInternalContention 	0
scalar ManetSim.node[1].nic.mac1609_4 	totalBusyTime 	0.00224766666
scalar ManetSim.node[1].mobility 	startTime 	3.1
scalar ManetSim.node[1].mobility 	totalTime 	295.4
scalar ManetSim.node[1].mobility 	stopTime 	298.6
scalar ManetSim.node[1].mobility 	minSpeed 	0
scalar ManetSim.node[1].mobility 	maxSpeed 	13.999952244477
scalar ManetSim.node[1].mobility 	totalDistance 	3409.0911459305
scalar ManetSim.node[1].mobility 	totalCO2Emission 	738.05539117569
scalar ManetSim.node[2].nic.phy80211p 	busyTime 	6.8356997768763e-006
scalar ManetSim.node[2].nic.mac1609_4 	ReceivedUnicastPackets 	0
scalar ManetSim.node[2].nic.mac1609_4 	ReceivedBroadcasts 	18
scalar ManetSim.node[2].nic.mac1609_4 	SentPackets 	1
scalar ManetSim.node[2].nic.mac1609_4 	SNIRLostPackets 	0
scalar ManetSim.node[2].nic.mac1609_4 	RXTXLostPackets 	0
scalar ManetSim.node[2].nic.mac1609_4 	TotalLostPackets 	0
scalar ManetSim.node[2].nic.mac1609_4 	DroppedPacketsInMac 	0
scalar ManetSim.node[2].nic.mac1609_4 	TooLittleTime 	0
scalar ManetSim.node[2].nic.mac1609_4 	TimesIntoBackoff 	1
scalar ManetSim.node[2].nic.mac1609_4 	SlotsBackoff 	0
scalar ManetSim.node[2].nic.mac1609_4 	NumInternalContention 	0
scalar ManetSim.node[2].nic.mac1609_4 	totalBusyTime 	0.002135333327
scalar ManetSim.node[2].mobility 	startTime 	6.1
scalar ManetSim.node[2].mobility 	totalTime 	295.7
scalar ManetSim.node[2].mobility 	stopTime 	301.9
scalar ManetSim.node[2].mobility 	minSpeed 	0
scalar ManetSim.node[2].mobility 	maxSpeed 	13.999992125905
scalar ManetSim.node[2].mobility 	totalDistance 	3409.7900516128
scalar ManetSim.node[2].mobility 	totalCO2Emission 	734.41502246807
scalar ManetSim.node[3].nic.phy80211p 	busyTime 	6.8287740425532e-006
scalar ManetSim.node[3].nic.mac1609_4 	ReceivedUnicastPackets 	0
scalar ManetSim.node[3].nic.mac1609_4 	ReceivedBroadcasts 	18
scalar ManetSim.node[3].nic.mac1609_4 	SentPackets 	1
scalar ManetSim.node[3].nic.mac1609_4 	SNIRLostPackets 	0
scalar ManetSim.node[3].nic.mac1609_4 	RXTXLostPackets 	0
scalar ManetSim.node[3].nic.mac1609_4 	TotalLostPackets 	0
scalar ManetSim.node[3].nic.mac1609_4 	DroppedPacketsInMac 	0
scalar ManetSim.node[3].nic.mac1609_4 	TooLittleTime 	0
scalar ManetSim.node[3].nic.mac1609_4 	TimesIntoBackoff 	1
scalar ManetSim.node[3].nic.mac1609_4 	SlotsBackoff 	7
scalar ManetSim.node[3].nic.mac1609_4 	NumInternalContention 	0
scalar ManetSim.node[3].nic.mac1609_4 	totalBusyTime 	0.002135333327
scalar ManetSim.node[3].mobility 	startTime 	9.1
scalar ManetSim.node[3].mobility 	totalTime 	296
scalar ManetSim.node[3].mobility 	stopTime 	305.2
scalar ManetSim.node[3].mobility 	minSpeed 	0
scalar ManetSim.node[3].mobility 	maxSpeed 	13.999880711909
scalar ManetSim.node[3].mobility 	totalDistance 	3409.1439713537
scalar ManetSim.node[3].mobility 	totalCO2Emission 	731.94021818927
scalar ManetSim.node[4].nic.phy80211p 	busyTime 	6.4385254922454e-006
scalar ManetSim.node[4].nic.mac1609_4 	ReceivedUnicastPackets 	0
scalar ManetSim.node[4].nic.mac1609_4 	ReceivedBroadcasts 	17
scalar ManetSim.node[4].nic.mac1609_4 	SentPackets 	1
scalar ManetSim.node[4].nic.mac1609_4 	SNIRLostPackets 	0
scalar ManetSim.node[4].nic.mac1609_4 	RXTXLostPackets 	0
scalar ManetSim.node[4].nic.mac1609_4 	TotalLostPackets 	0
scalar ManetSim.node[4].nic.mac1609_4 	DroppedPacketsInMac 	0
scalar ManetSim.node[4].nic.mac1609_4 	TooLittleTime 	0
scalar ManetSim.node[4].nic.mac1609_4 	TimesIntoBackoff 	1
scalar ManetSim.node[4].nic.mac1609_4 	SlotsBackoff 	0
scalar ManetSim.node[4].nic.mac1609_4 	NumInternalContention 	0
scalar ManetSim.node[4].nic.mac1609_4 	totalBusyTime 	0.002022999994
scalar ManetSim.node[4].mobility 	startTime 	12.1
scalar ManetSim.node[4].mobility 	totalTime 	296.5
scalar ManetSim.node[4].mobility 	stopTime 	308.7
scalar ManetSim.node[4].mobility 	minSpeed 	0
scalar ManetSim.node[4].mobility 	maxSpeed 	13.999990419396
scalar ManetSim.node[4].mobility 	totalDistance 	3409.7288451556
scalar ManetSim.node[4].mobility 	totalCO2Emission 	732.781979673
scalar ManetSim.node[5].nic.phy80211p 	busyTime 	5.6695827557201e-006
scalar ManetSim.node[5].nic.mac1609_4 	ReceivedUnicastPackets 	0
scalar ManetSim.node[5].nic.mac1609_4 	ReceivedBroadcasts 	14
scalar ManetSim.node[5].nic.mac1609_4 	SentPackets 	1
scalar ManetSim.node[5].nic.mac1609_4 	SNIRLostPackets 	1
scalar ManetSim.node[5].nic.mac1609_4 	RXTXLostPackets 	0
scalar ManetSim.node[5].nic.mac1609_4 	TotalLostPackets 	1
scalar ManetSim.node[5].nic.mac1609_4 	DroppedPacketsInMac 	0
scalar ManetSim.node[5].nic.mac1609_4 	TooLittleTime 	0
scalar ManetSim.node[5].nic.mac1609_4 	TimesIntoBackoff 	1
scalar ManetSim.node[5].nic.mac1609_4 	SlotsBackoff 	0
scalar ManetSim.node[5].nic.mac1609_4 	NumInternalContention 	0
scalar ManetSim.node[5].nic.mac1609_4 	totalBusyTime 	0.001690656342
scalar ManetSim.node[5].mobility 	startTime 	15.1
scalar ManetSim.node[5].mobility 	totalTime 	297.1
scalar ManetSim.node[5].mobility 	stopTime 	312.3
scalar ManetSim.node[5].mobility 	minSpeed 	0
scalar ManetSim.node[5].mobility 	maxSpeed 	13.999963194737
scalar ManetSim.node[5].mobility 	totalDistance 	3409.8766503654
scalar ManetSim.node[5].mobility 	totalCO2Emission 	731.76309143873
scalar ManetSim.node[6].nic.phy80211p 	busyTime 	6.4104285364216e-006
scalar ManetSim.node[6].nic.mac1609_4 	ReceivedUnicastPackets 	0
scalar ManetSim.node[6].nic.mac1609_4 	ReceivedBroadcasts 	14
scalar ManetSim.node[6].nic.mac1609_4 	SentPackets 	1
scalar ManetSim.node[6].nic.mac1609_4 	SNIRLostPackets 	3
scalar ManetSim.node[6].nic.mac1609_4 	RXTXLostPackets 	0
scalar ManetSim.node[6].nic.mac1609_4 	TotalLostPackets 	3
scalar ManetSim.node[6].nic.mac1609_4 	DroppedPacketsInMac 	0
scalar ManetSim.node[6].nic.mac1609_4 	TooLittleTime 	0
scalar ManetSim.node[6].nic.mac1609_4 	TimesIntoBackoff 	2
scalar ManetSim.node[6].nic.mac1609_4 	SlotsBackoff 	7
scalar ManetSim.node[6].nic.mac1609_4 	NumInternalContention 	0
scalar ManetSim.node[6].nic.mac1609_4 	totalBusyTime 	0.001871024094
scalar ManetSim.node[6].mobility 	startTime 	18.1
scalar ManetSim.node[6].mobility 	totalTime 	297.8
scalar ManetSim.node[6].mobility 	stopTime 	316
scalar ManetSim.node[6].mobility 	minSpeed 	0
scalar ManetSim.node[6].mobility 	maxSpeed 	13.999949261174
scalar ManetSim.node[6].mobility 	totalDistance 	3409.7922972141
scalar ManetSim.node[6].mobility 	totalCO2Emission 	731.87934489352
scalar ManetSim.node[7].nic.phy80211p 	busyTime 	6.771600783657e-006
scalar ManetSim.node[7].nic.mac1609_4 	ReceivedUnicastPackets 	0
scalar ManetSim.node[7].nic.mac1609_4 	ReceivedBroadcasts 	14
scalar ManetSim.node[7].nic.mac1609_4 	SentPackets 	1
scalar ManetSim.node[7].nic.mac1609_4 	SNIRLostPackets 	4
scalar ManetSim.node[7].nic.mac1609_4 	RXTXLostPackets 	0
scalar ManetSim.node[7].nic.mac1609_4 	TotalLostPackets 	4
scalar ManetSim.node[7].nic.mac1609_4 	DroppedPacketsInMac 	0
scalar ManetSim.node[7].nic.mac1609_4 	TooLittleTime 	0
scalar ManetSim.node[7].nic.mac1609_4 	TimesIntoBackoff 	2
scalar ManetSim.node[7].nic.mac1609_4 	SlotsBackoff 	7
scalar ManetSim.node[7].nic.mac1609_4 	NumInternalContention 	0
scalar ManetSim.node[7].nic.mac1609_4 	totalBusyTime 	0.0019829205
scalar ManetSim.node[7].mobility 	startTime 	21.1
scalar ManetSim.node[7].mobility 	totalTime 	298.5
scalar ManetSim.node[7].mobility 	stopTime 	319.7
scalar ManetSim.node[7].mobility 	minSpeed 	0
scalar ManetSim.node[7].mobility 	maxSpeed 	13.999814914761
scalar ManetSim.node[7].mobility 	totalDistance 	3409.5214337624
scalar ManetSim.node[7].mobility 	totalCO2Emission 	737.26783023269
scalar ManetSim.node[8].nic.phy80211p 	busyTime 	7.8790914929859e-006
scalar ManetSim.node[8].nic.mac1609_4 	ReceivedUnicastPackets 	0
scalar ManetSim.node[8].nic.mac1609_4 	ReceivedBroadcasts 	15
scalar ManetSim.node[8].nic.mac1609_4 	SentPackets 	1
scalar ManetSim.node[8].nic.mac1609_4 	SNIRLostPackets 	6
scalar ManetSim.node[8].nic.mac1609_4 	RXTXLostPackets 	0
scalar ManetSim.node[8].nic.mac1609_4 	TotalLostPackets 	6
scalar ManetSim.node[8].nic.mac1609_4 	DroppedPacketsInMac 	0
scalar ManetSim.node[8].nic.mac1609_4 	TooLittleTime 	0
scalar ManetSim.node[8].nic.mac1609_4 	TimesIntoBackoff 	1
scalar ManetSim.node[8].nic.mac1609_4 	SlotsBackoff 	7
scalar ManetSim.node[8].nic.mac1609_4 	NumInternalContention 	0
scalar ManetSim.node[8].nic.mac1609_4 	totalBusyTime 	0.002284529943
scalar ManetSim.node[8].mobility 	startTime 	24.1
scalar ManetSim.node[8].mobility 	totalTime 	299.3
scalar ManetSim.node[8].mobility 	stopTime 	323.5
scalar ManetSim.node[8].mobility 	minSpeed 	0.015516525807857
scalar ManetSim.node[8].mobility 	maxSpeed 	13.999786749464
scalar ManetSim.node[8].mobility 	totalDistance 	3409.992066507
scalar ManetSim.node[8].mobility 	totalCO2Emission 	737.05839203977
scalar ManetSim.node[9].nic.phy80211p 	busyTime 	7.8580945802798e-006
scalar ManetSim.node[9].nic.mac1609_4 	ReceivedUnicastPackets 	0
scalar ManetSim.node[9].nic.mac1609_4 	ReceivedBroadcasts 	15
scalar ManetSim.node[9].nic.mac1609_4 	SentPackets 	1
scalar ManetSim.node[9].nic.mac1609_4 	SNIRLostPackets 	6
scalar ManetSim.node[9].nic.mac1609_4 	RXTXLostPackets 	0
scalar ManetSim.node[9].nic.mac1609_4 	TotalLostPackets 	6
scalar ManetSim.node[9].nic.mac1609_4 	DroppedPacketsInMac 	0
scalar ManetSim.node[9].nic.mac1609_4 	TooLittleTime 	0
scalar ManetSim.node[9].nic.mac1609_4 	TimesIntoBackoff 	1
scalar ManetSim.node[9].nic.mac1609_4 	SlotsBackoff 	3
scalar ManetSim.node[9].nic.mac1609_4 	NumInternalContention 	0
scalar ManetSim.node[9].nic.mac1609_4 	totalBusyTime 	0.002284315148
scalar ManetSim.node[9].mobility 	startTime 	27.1
scalar ManetSim.node[9].mobility 	totalTime 	300.1
scalar ManetSim.node[9].mobility 	stopTime 	327.3
scalar ManetSim.node[9].mobility 	minSpeed 	0.041357109862987
scalar ManetSim.node[9].mobility 	maxSpeed 	13.999882012645
scalar ManetSim.node[9].mobility 	totalDistance 	3409.8895786862
scalar ManetSim.node[9].mobility 	totalCO2Emission 	739.07285246531
scalar ManetSim.node[10].nic.phy80211p 	busyTime 	7.8424201894947e-006
scalar ManetSim.node[10].nic.mac1609_4 	ReceivedUnicastPackets 	0
scalar ManetSim.node[10].nic.mac1609_4 	ReceivedBroadcasts 	15
scalar ManetSim.node[10].nic.mac1609_4 	SentPackets 	1
scalar ManetSim.node[10].nic.mac1609_4 	SNIRLostPackets 	6
scalar ManetSim.node[10].nic.mac1609_4 	RXTXLostPackets 	0
scalar ManetSim.node[10].nic.mac1609_4 	TotalLostPackets 	6
scalar ManetSim.node[10].nic.mac1609_4 	DroppedPacketsInMac 	0
scalar ManetSim.node[10].nic.mac1609_4 	TooLittleTime 	0
scalar ManetSim.node[10].nic.mac1609_4 	TimesIntoBackoff 	1
scalar ManetSim.node[10].nic.mac1609_4 	SlotsBackoff 	3
scalar ManetSim.node[10].nic.mac1609_4 	NumInternalContention 	0
scalar ManetSim.node[10].nic.mac1609_4 	totalBusyTime 	0.002284112386
scalar ManetSim.node[10].mobility 	startTime 	30.1
scalar ManetSim.node[10].mobility 	totalTime 	300.7
scalar ManetSim.node[10].mobility 	stopTime 	330.9
scalar ManetSim.node[10].mobility 	minSpeed 	0
scalar ManetSim.node[10].mobility 	maxSpeed 	13.999854134803
scalar ManetSim.node[10].mobility 	totalDistance 	3409.3168563116
scalar ManetSim.node[10].mobility 	totalCO2Emission 	749.2850339671
scalar ManetSim.node[24].nic.phy80211p 	busyTime 	7.4093074166361e-006
scalar ManetSim.node[24].nic.mac1609_4 	ReceivedUnicastPackets 	0
scalar ManetSim.node[24].nic.mac1609_4 	ReceivedBroadcasts 	18
scalar ManetSim.node[24].nic.mac1609_4 	SentPackets 	1
scalar ManetSim.node[24].nic.mac1609_4 	SNIRLostPackets 	0
scalar ManetSim.node[24].nic.mac1609_4 	RXTXLostPackets 	0
scalar ManetSim.node[24].nic.mac1609_4 	TotalLostPackets 	0
scalar ManetSim.node[24].nic.mac1609_4 	DroppedPacketsInMac 	0
scalar ManetSim.node[24].nic.mac1609_4 	TooLittleTime 	0
scalar ManetSim.node[24].nic.mac1609_4 	TimesIntoBackoff 	1
scalar ManetSim.node[24].nic.mac1609_4 	SlotsBackoff 	5
scalar ManetSim.node[24].nic.mac1609_4 	NumInternalContention 	0
scalar ManetSim.node[24].nic.mac1609_4 	totalBusyTime 	0.002135333327
scalar ManetSim.node[24].mobility 	startTime 	72.1
scalar ManetSim.node[24].mobility 	totalTime 	272.8
scalar ManetSim.node[24].mobility 	stopTime 	345
scalar ManetSim.node[24].mobility 	minSpeed 	0.25250898685399
scalar ManetSim.node[24].mobility 	maxSpeed 	13.999973095939
scalar ManetSim.node[24].mobility 	totalDistance 	3409.206108153
scalar ManetSim.node[24].mobility 	totalCO2Emission 	706.16950018141
scalar ManetSim.node[19].nic.phy80211p 	busyTime 	8.1508355079156e-006
scalar ManetSim.node[19].nic.mac1609_4 	ReceivedUnicastPackets 	0
scalar ManetSim.node[19].nic.mac1609_4 	ReceivedBroadcasts 	16
scalar ManetSim.node[19].nic.mac1609_4 	SentPackets 	1
scalar ManetSim.node[19].nic.mac1609_4 	SNIRLostPackets 	6
scalar ManetSim.node[19].nic.mac1609_4 	RXTXLostPackets 	0
scalar ManetSim.node[19].nic.mac1609_4 	TotalLostPackets 	6
scalar ManetSim.node[19].nic.mac1609_4 	DroppedPacketsInMac 	0
scalar ManetSim.node[19].nic.mac1609_4 	TooLittleTime 	0
scalar ManetSim.node[19].nic.mac1609_4 	TimesIntoBackoff 	1
scalar ManetSim.node[19].nic.mac1609_4 	SlotsBackoff 	5
scalar ManetSim.node[19].nic.mac1609_4 	NumInternalContention 	0
scalar ManetSim.node[19].nic.mac1609_4 	totalBusyTime 	0.00245636813
scalar ManetSim.node[19].mobility 	startTime 	57.1
scalar ManetSim.node[19].mobility 	totalTime 	303.1
scalar ManetSim.node[19].mobility 	stopTime 	360.3
scalar ManetSim.node[19].mobility 	minSpeed 	0.25958860505419
scalar ManetSim.node[19].mobility 	maxSpeed 	13.99987098614
scalar ManetSim.node[19].mobility 	totalDistance 	3366.6868599533
scalar ManetSim.node[19].mobility 	totalCO2Emission 	804.63682420065
scalar ManetSim.node[20].nic.phy80211p 	busyTime 	7.3376880225653e-006
scalar ManetSim.node[20].nic.mac1609_4 	ReceivedUnicastPackets 	0
scalar ManetSim.node[20].nic.mac1609_4 	ReceivedBroadcasts 	16
scalar ManetSim.node[20].nic.mac1609_4 	SentPackets 	1
scalar ManetSim.node[20].nic.mac1609_4 	SNIRLostPackets 	6
scalar ManetSim.node[20].nic.mac1609_4 	RXTXLostPackets 	0
scalar ManetSim.node[20].nic.mac1609_4 	TotalLostPackets 	6
scalar ManetSim.node[20].nic.mac1609_4 	DroppedPacketsInMac 	0
scalar ManetSim.node[20].nic.mac1609_4 	TooLittleTime 	0
scalar ManetSim.node[20].nic.mac1609_4 	TimesIntoBackoff 	2
scalar ManetSim.node[20].nic.mac1609_4 	SlotsBackoff 	9
scalar ManetSim.node[20].nic.mac1609_4 	NumInternalContention 	0
scalar ManetSim.node[20].nic.mac1609_4 	totalBusyTime 	0.002456502825
scalar ManetSim.node[20].mobility 	startTime 	60.1
scalar ManetSim.node[20].mobility 	totalTime 	336.7
scalar ManetSim.node[20].mobility 	stopTime 	396.9
scalar ManetSim.node[20].mobility 	minSpeed 	0
scalar ManetSim.node[20].mobility 	maxSpeed 	13.999795455807
scalar ManetSim.node[20].mobility 	totalDistance 	3366.7918774565
scalar ManetSim.node[20].mobility 	totalCO2Emission 	850.30058527984
scalar ManetSim.node[21].nic.phy80211p 	busyTime 	7.3116370591716e-006
scalar ManetSim.node[21].nic.mac1609_4 	ReceivedUnicastPackets 	0
scalar ManetSim.node[21].nic.mac1609_4 	ReceivedBroadcasts 	16
scalar ManetSim.node[21].nic.mac1609_4 	SentPackets 	1
scalar ManetSim.node[21].nic.mac1609_4 	SNIRLostPackets 	6
scalar ManetSim.node[21].nic.mac1609_4 	RXTXLostPackets 	0
scalar ManetSim.node[21].nic.mac1609_4 	TotalLostPackets 	6
scalar ManetSim.node[21].nic.mac1609_4 	DroppedPacketsInMac 	0
scalar ManetSim.node[21].nic.mac1609_4 	TooLittleTime 	0
scalar ManetSim.node[21].nic.mac1609_4 	TimesIntoBackoff 	2
scalar ManetSim.node[21].nic.mac1609_4 	SlotsBackoff 	1
scalar ManetSim.node[21].nic.mac1609_4 	NumInternalContention 	0
scalar ManetSim.node[21].nic.mac1609_4 	totalBusyTime 	0.002456601273
scalar ManetSim.node[21].mobility 	startTime 	63.1
scalar ManetSim.node[21].mobility 	totalTime 	337.9
scalar ManetSim.node[21].mobility 	stopTime 	401.1
scalar ManetSim.node[21].mobility 	minSpeed 	0
scalar ManetSim.node[21].mobility 	maxSpeed 	13.999106696912
scalar ManetSim.node[21].mobility 	totalDistance 	3268.6961899238
scalar ManetSim.node[21].mobility 	totalCO2Emission 	849.05890521071
scalar ManetSim.node[22].nic.phy80211p 	busyTime 	5.9734120945347e-006
scalar ManetSim.node[22].nic.mac1609_4 	ReceivedUnicastPackets 	0
scalar ManetSim.node[22].nic.mac1609_4 	ReceivedBroadcasts 	15
scalar ManetSim.node[22].nic.mac1609_4 	SentPackets 	1
scalar ManetSim.node[22].nic.mac1609_4 	SNIRLostPackets 	3
scalar ManetSim.node[22].nic.mac1609_4 	RXTXLostPackets 	0
scalar ManetSim.node[22].nic.mac1609_4 	TotalLostPackets 	3
scalar ManetSim.node[22].nic.mac1609_4 	DroppedPacketsInMac 	0
scalar ManetSim.node[22].nic.mac1609_4 	TooLittleTime 	0
scalar ManetSim.node[22].nic.mac1609_4 	TimesIntoBackoff 	2
scalar ManetSim.node[22].nic.mac1609_4 	SlotsBackoff 	2
scalar ManetSim.node[22].nic.mac1609_4 	NumInternalContention 	0
scalar ManetSim.node[22].nic.mac1609_4 	totalBusyTime 	0.002013444395
scalar ManetSim.node[22].mobility 	startTime 	66.1
scalar ManetSim.node[22].mobility 	totalTime 	338.4
scalar ManetSim.node[22].mobility 	stopTime 	404.6
scalar ManetSim.node[22].mobility 	minSpeed 	0
scalar ManetSim.node[22].mobility 	maxSpeed 	13.999191706269
scalar ManetSim.node[22].mobility 	totalDistance 	3268.8260260654
scalar ManetSim.node[22].mobility 	totalCO2Emission 	844.21833318397
scalar ManetSim.node[23].nic.phy80211p 	busyTime 	4.3090390351136e-006
scalar ManetSim.node[23].nic.mac1609_4 	ReceivedUnicastPackets 	0
scalar ManetSim.node[23].nic.mac1609_4 	ReceivedBroadcasts 	11
scalar ManetSim.node[23].nic.mac1609_4 	SentPackets 	1
scalar ManetSim.node[23].nic.mac1609_4 	SNIRLostPackets 	2
scalar ManetSim.node[23].nic.mac1609_4 	RXTXLostPackets 	0
scalar ManetSim.node[23].nic.mac1609_4 	TotalLostPackets 	2
scalar ManetSim.node[23].nic.mac1609_4 	DroppedPacketsInMac 	0
scalar ManetSim.node[23].nic.mac1609_4 	TooLittleTime 	0
scalar ManetSim.node[23].nic.mac1609_4 	TimesIntoBackoff 	2
scalar ManetSim.node[23].nic.mac1609_4 	SlotsBackoff 	10
scalar ManetSim.node[23].nic.mac1609_4 	NumInternalContention 	0
scalar ManetSim.node[23].nic.mac1609_4 	totalBusyTime 	0.001562712468
scalar ManetSim.node[23].mobility 	startTime 	69.1
scalar ManetSim.node[23].mobility 	totalTime 	338.8
scalar ManetSim.node[23].mobility 	stopTime 	408
scalar ManetSim.node[23].mobility 	minSpeed 	0
scalar ManetSim.node[23].mobility 	maxSpeed 	13.999826378911
scalar ManetSim.node[23].mobility 	totalDistance 	3269.0239513579
scalar ManetSim.node[23].mobility 	totalCO2Emission 	844.34216183767
scalar ManetSim.node[25].nic.phy80211p 	busyTime 	5.680150687091e-006
scalar ManetSim.node[25].nic.mac1609_4 	ReceivedUnicastPackets 	0
scalar ManetSim.node[25].nic.mac1609_4 	ReceivedBroadcasts 	16
scalar ManetSim.node[25].nic.mac1609_4 	SentPackets 	1
scalar ManetSim.node[25].nic.mac1609_4 	SNIRLostPackets 	1
scalar ManetSim.node[25].nic.mac1609_4 	RXTXLostPackets 	0
scalar ManetSim.node[25].nic.mac1609_4 	TotalLostPackets 	1
scalar ManetSim.node[25].nic.mac1609_4 	DroppedPacketsInMac 	0
scalar ManetSim.node[25].nic.mac1609_4 	TooLittleTime 	0
scalar ManetSim.node[25].nic.mac1609_4 	TimesIntoBackoff 	1
scalar ManetSim.node[25].nic.mac1609_4 	SlotsBackoff 	4
scalar ManetSim.node[25].nic.mac1609_4 	NumInternalContention 	0
scalar ManetSim.node[25].nic.mac1609_4 	totalBusyTime 	0.002012246216
scalar ManetSim.node[25].mobility 	startTime 	75.1
scalar ManetSim.node[25].mobility 	totalTime 	336.1
scalar ManetSim.node[25].mobility 	stopTime 	411.3
scalar ManetSim.node[25].mobility 	minSpeed 	0
scalar ManetSim.node[25].mobility 	maxSpeed 	13.999980755707
scalar ManetSim.node[25].mobility 	totalDistance 	3269.5159832963
scalar ManetSim.node[25].mobility 	totalCO2Emission 	842.97161066083
scalar ManetSim.node[26].nic.phy80211p 	busyTime 	7.6780584219911e-006
scalar ManetSim.node[26].nic.mac1609_4 	ReceivedUnicastPackets 	0
scalar ManetSim.node[26].nic.mac1609_4 	ReceivedBroadcasts 	20
scalar ManetSim.node[26].nic.mac1609_4 	SentPackets 	1
scalar ManetSim.node[26].nic.mac1609_4 	SNIRLostPackets 	3
scalar ManetSim.node[26].nic.mac1609_4 	RXTXLostPackets 	0
scalar ManetSim.node[26].nic.mac1609_4 	TotalLostPackets 	3
scalar ManetSim.node[26].nic.mac1609_4 	DroppedPacketsInMac 	0
scalar ManetSim.node[26].nic.mac1609_4 	TooLittleTime 	0
scalar ManetSim.node[26].nic.mac1609_4 	TimesIntoBackoff 	1
scalar ManetSim.node[26].nic.mac1609_4 	SlotsBackoff 	5
scalar ManetSim.node[26].nic.mac1609_4 	NumInternalContention 	0
scalar ManetSim.node[26].nic.mac1609_4 	totalBusyTime 	0.00268619733
scalar ManetSim.node[26].mobility 	startTime 	78.1
scalar ManetSim.node[26].mobility 	totalTime 	336.4
scalar ManetSim.node[26].mobility 	stopTime 	414.6
scalar ManetSim.node[26].mobility 	minSpeed 	0
scalar ManetSim.node[26].mobility 	maxSpeed 	13.999842788214
scalar ManetSim.node[26].mobility 	totalDistance 	3268.7781987244
scalar ManetSim.node[26].mobility 	totalCO2Emission 	849.24123598918
scalar ManetSim.node[11].nic.phy80211p 	busyTime 	1.0214774369966e-005
scalar ManetSim.node[11].nic.mac1609_4 	ReceivedUnicastPackets 	0
scalar ManetSim.node[11].nic.mac1609_4 	ReceivedBroadcasts 	23
scalar ManetSim.node[11].nic.mac1609_4 	SentPackets 	1
scalar ManetSim.node[11].nic.mac1609_4 	SNIRLostPackets 	12
scalar ManetSim.node[11].nic.mac1609_4 	RXTXLostPackets 	0
scalar ManetSim.node[11].nic.mac1609_4 	TotalLostPackets 	12
scalar ManetSim.node[11].nic.mac1609_4 	DroppedPacketsInMac 	0
scalar ManetSim.node[11].nic.mac1609_4 	TooLittleTime 	0
scalar ManetSim.node[11].nic.mac1609_4 	TimesIntoBackoff 	1
scalar ManetSim.node[11].nic.mac1609_4 	SlotsBackoff 	1
scalar ManetSim.node[11].nic.mac1609_4 	NumInternalContention 	0
scalar ManetSim.node[11].nic.mac1609_4 	totalBusyTime 	0.003590853291
scalar ManetSim.node[11].mobility 	startTime 	33.1
scalar ManetSim.node[11].mobility 	totalTime 	384.8
scalar ManetSim.node[11].mobility 	stopTime 	418
scalar ManetSim.node[11].mobility 	minSpeed 	0
scalar ManetSim.node[11].mobility 	maxSpeed 	14
scalar ManetSim.node[11].mobility 	totalDistance 	4035.6422594421
scalar ManetSim.node[11].mobility 	totalCO2Emission 	969.39526319611
scalar ManetSim.node[30].nic.phy80211p 	busyTime 	9.491048050694e-006
scalar ManetSim.node[30].nic.mac1609_4 	ReceivedUnicastPackets 	0
scalar ManetSim.node[30].nic.mac1609_4 	ReceivedBroadcasts 	26
scalar ManetSim.node[30].nic.mac1609_4 	SentPackets 	1
scalar ManetSim.node[30].nic.mac1609_4 	SNIRLostPackets 	2
scalar ManetSim.node[30].nic.mac1609_4 	RXTXLostPackets 	0
scalar ManetSim.node[30].nic.mac1609_4 	TotalLostPackets 	2
scalar ManetSim.node[30].nic.mac1609_4 	DroppedPacketsInMac 	0
scalar ManetSim.node[30].nic.mac1609_4 	TooLittleTime 	0
scalar ManetSim.node[30].nic.mac1609_4 	TimesIntoBackoff 	1
scalar ManetSim.node[30].nic.mac1609_4 	SlotsBackoff 	6
scalar ManetSim.node[30].nic.mac1609_4 	NumInternalContention 	0
scalar ManetSim.node[30].nic.mac1609_4 	totalBusyTime 	0.003146573641
scalar ManetSim.node[30].mobility 	startTime 	90.1
scalar ManetSim.node[30].mobility 	totalTime 	331.3
scalar ManetSim.node[30].mobility 	stopTime 	421.5
scalar ManetSim.node[30].mobility 	minSpeed 	0
scalar ManetSim.node[30].mobility 	maxSpeed 	13.999902148754
scalar ManetSim.node[30].mobility 	totalDistance 	3409.9319122057
scalar ManetSim.node[30].mobility 	totalCO2Emission 	778.65286577438
scalar ManetSim.node[31].nic.phy80211p 	busyTime 	9.4738955542169e-006
scalar ManetSim.node[31].nic.mac1609_4 	ReceivedUnicastPackets 	0
scalar ManetSim.node[31].nic.mac1609_4 	ReceivedBroadcasts 	26
scalar ManetSim.node[31].nic.mac1609_4 	SentPackets 	1
scalar ManetSim.node[31].nic.mac1609_4 	SNIRLostPackets 	2
scalar ManetSim.node[31].nic.mac1609_4 	RXTXLostPackets 	0
scalar ManetSim.node[31].nic.mac1609_4 	TotalLostPackets 	2
scalar ManetSim.node[31].nic.mac1609_4 	DroppedPacketsInMac 	0
scalar ManetSim.node[31].nic.mac1609_4 	TooLittleTime 	0
scalar ManetSim.node[31].nic.mac1609_4 	TimesIntoBackoff 	2
scalar ManetSim.node[31].nic.mac1609_4 	SlotsBackoff 	6
scalar ManetSim.node[31].nic.mac1609_4 	NumInternalContention 	0
scalar ManetSim.node[31].nic.mac1609_4 	totalBusyTime 	0.003146584683
scalar ManetSim.node[31].mobility 	startTime 	93.1
scalar ManetSim.node[31].mobility 	totalTime 	331.9
scalar ManetSim.node[31].mobility 	stopTime 	425.1
scalar ManetSim.node[31].mobility 	minSpeed 	0
scalar ManetSim.node[31].mobility 	maxSpeed 	13.999772631538
scalar ManetSim.node[31].mobility 	totalDistance 	3410.0721187132
scalar ManetSim.node[31].mobility 	totalCO2Emission 	779.55757736534
scalar ManetSim.node[32].nic.phy80211p 	busyTime 	9.7916040186354e-006
scalar ManetSim.node[32].nic.mac1609_4 	ReceivedUnicastPackets 	0
scalar ManetSim.node[32].nic.mac1609_4 	ReceivedBroadcasts 	27
scalar ManetSim.node[32].nic.mac1609_4 	SentPackets 	1
scalar ManetSim.node[32].nic.mac1609_4 	SNIRLostPackets 	2
scalar ManetSim.node[32].nic.mac1609_4 	RXTXLostPackets 	0
scalar ManetSim.node[32].nic.mac1609_4 	TotalLostPackets 	2
scalar ManetSim.node[32].nic.mac1609_4 	DroppedPacketsInMac 	0
scalar ManetSim.node[32].nic.mac1609_4 	TooLittleTime 	0
scalar ManetSim.node[32].nic.mac1609_4 	TimesIntoBackoff 	1
scalar ManetSim.node[32].nic.mac1609_4 	SlotsBackoff 	1
scalar ManetSim.node[32].nic.mac1609_4 	NumInternalContention 	0
scalar ManetSim.node[32].nic.mac1609_4 	totalBusyTime 	0.003258929813
scalar ManetSim.node[32].mobility 	startTime 	96.1
scalar ManetSim.node[32].mobility 	totalTime 	332.6
scalar ManetSim.node[32].mobility 	stopTime 	428.8
scalar ManetSim.node[32].mobility 	minSpeed 	0
scalar ManetSim.node[32].mobility 	maxSpeed 	13.999941313104
scalar ManetSim.node[32].mobility 	totalDistance 	3409.8551927665
scalar ManetSim.node[32].mobility 	totalCO2Emission 	783.47693346959
scalar ManetSim.node[33].nic.phy80211p 	busyTime 	9.7710457618476e-006
scalar ManetSim.node[33].nic.mac1609_4 	ReceivedUnicastPackets 	0
scalar ManetSim.node[33].nic.mac1609_4 	ReceivedBroadcasts 	27
scalar ManetSim.node[33].nic.mac1609_4 	SentPackets 	1
scalar ManetSim.node[33].nic.mac1609_4 	SNIRLostPackets 	2
scalar ManetSim.node[33].nic.mac1609_4 	RXTXLostPackets 	0
scalar ManetSim.node[33].nic.mac1609_4 	TotalLostPackets 	2
scalar ManetSim.node[33].nic.mac1609_4 	DroppedPacketsInMac 	0
scalar ManetSim.node[33].nic.mac1609_4 	TooLittleTime 	0
scalar ManetSim.node[33].nic.mac1609_4 	TimesIntoBackoff 	1
scalar ManetSim.node[33].nic.mac1609_4 	SlotsBackoff 	7
scalar ManetSim.node[33].nic.mac1609_4 	NumInternalContention 	0
scalar ManetSim.node[33].nic.mac1609_4 	totalBusyTime 	0.003258942438
scalar ManetSim.node[33].mobility 	startTime 	99.1
scalar ManetSim.node[33].mobility 	totalTime 	333.3
scalar ManetSim.node[33].mobility 	stopTime 	432.5
scalar ManetSim.node[33].mobility 	minSpeed 	0
scalar ManetSim.node[33].mobility 	maxSpeed 	13.999916969412
scalar ManetSim.node[33].mobility 	totalDistance 	3409.5918676433
scalar ManetSim.node[33].mobility 	totalCO2Emission 	785.0419356542
scalar ManetSim.node[34].nic.phy80211p 	busyTime 	9.7476560652304e-006
scalar ManetSim.node[34].nic.mac1609_4 	ReceivedUnicastPackets 	0
scalar ManetSim.node[34].nic.mac1609_4 	ReceivedBroadcasts 	27
scalar ManetSim.node[34].nic.mac1609_4 	SentPackets 	1
scalar ManetSim.node[34].nic.mac1609_4 	SNIRLostPackets 	2
scalar ManetSim.node[34].nic.mac1609_4 	RXTXLostPackets 	0
scalar ManetSim.node[34].nic.mac1609_4 	TotalLostPackets 	2
scalar ManetSim.node[34].nic.mac1609_4 	DroppedPacketsInMac 	0
scalar ManetSim.node[34].nic.mac1609_4 	TooLittleTime 	0
scalar ManetSim.node[34].nic.mac1609_4 	TimesIntoBackoff 	1
scalar ManetSim.node[34].nic.mac1609_4 	SlotsBackoff 	3
scalar ManetSim.node[34].nic.mac1609_4 	NumInternalContention 	0
scalar ManetSim.node[34].nic.mac1609_4 	totalBusyTime 	0.003258956095
scalar ManetSim.node[34].mobility 	startTime 	102.1
scalar ManetSim.node[34].mobility 	totalTime 	334.1
scalar ManetSim.node[34].mobility 	stopTime 	436.3
scalar ManetSim.node[34].mobility 	minSpeed 	0
scalar ManetSim.node[34].mobility 	maxSpeed 	13.999994791788
scalar ManetSim.node[34].mobility 	totalDistance 	3410.0069709057
scalar ManetSim.node[34].mobility 	totalCO2Emission 	784.20454110344
scalar ManetSim.node[45].nic.phy80211p 	busyTime 	5.1562841377049e-006
scalar ManetSim.node[45].nic.mac1609_4 	ReceivedUnicastPackets 	0
scalar ManetSim.node[45].nic.mac1609_4 	ReceivedBroadcasts 	14
scalar ManetSim.node[45].nic.mac1609_4 	SentPackets 	1
scalar ManetSim.node[45].nic.mac1609_4 	SNIRLostPackets 	0
scalar ManetSim.node[45].nic.mac1609_4 	RXTXLostPackets 	0
scalar ManetSim.node[45].nic.mac1609_4 	TotalLostPackets 	0
scalar ManetSim.node[45].nic.mac1609_4 	DroppedPacketsInMac 	0
scalar ManetSim.node[45].nic.mac1609_4 	TooLittleTime 	0
scalar ManetSim.node[45].nic.mac1609_4 	TimesIntoBackoff 	1
scalar ManetSim.node[45].nic.mac1609_4 	SlotsBackoff 	0
scalar ManetSim.node[45].nic.mac1609_4 	NumInternalContention 	0
scalar ManetSim.node[45].nic.mac1609_4 	totalBusyTime 	0.001685999995
scalar ManetSim.node[45].mobility 	startTime 	135.1
scalar ManetSim.node[45].mobility 	totalTime 	304.9
scalar ManetSim.node[45].mobility 	stopTime 	440.1
scalar ManetSim.node[45].mobility 	minSpeed 	0
scalar ManetSim.node[45].mobility 	maxSpeed 	13.999886736055
scalar ManetSim.node[45].mobility 	totalDistance 	3409.6525463104
scalar ManetSim.node[45].mobility 	totalCO2Emission 	753.99177972326
scalar ManetSim.node[46].nic.phy80211p 	busyTime 	5.1444771409879e-006
scalar ManetSim.node[46].nic.mac1609_4 	ReceivedUnicastPackets 	0
scalar ManetSim.node[46].nic.mac1609_4 	ReceivedBroadcasts 	14
scalar ManetSim.node[46].nic.mac1609_4 	SentPackets 	1
scalar ManetSim.node[46].nic.mac1609_4 	SNIRLostPackets 	0
scalar ManetSim.node[46].nic.mac1609_4 	RXTXLostPackets 	0
scalar ManetSim.node[46].nic.mac1609_4 	TotalLostPackets 	0
scalar ManetSim.node[46].nic.mac1609_4 	DroppedPacketsInMac 	0
scalar ManetSim.node[46].nic.mac1609_4 	TooLittleTime 	0
scalar ManetSim.node[46].nic.mac1609_4 	TimesIntoBackoff 	1
scalar ManetSim.node[46].nic.mac1609_4 	SlotsBackoff 	3
scalar ManetSim.node[46].nic.mac1609_4 	NumInternalContention 	0
scalar ManetSim.node[46].nic.mac1609_4 	totalBusyTime 	0.001685999995
scalar ManetSim.node[46].mobility 	startTime 	138.1
scalar ManetSim.node[46].mobility 	totalTime 	305.6
scalar ManetSim.node[46].mobility 	stopTime 	443.8
scalar ManetSim.node[46].mobility 	minSpeed 	0
scalar ManetSim.node[46].mobility 	maxSpeed 	13.999913079552
scalar ManetSim.node[46].mobility 	totalDistance 	3409.1774295327
scalar ManetSim.node[46].mobility 	totalCO2Emission 	763.58843278128
scalar ManetSim.node[47].nic.phy80211p 	busyTime 	5.1327240926893e-006
scalar ManetSim.node[47].nic.mac1609_4 	ReceivedUnicastPackets 	0
scalar ManetSim.node[47].nic.mac1609_4 	ReceivedBroadcasts 	14
scalar ManetSim.node[47].nic.mac1609_4 	SentPackets 	1
scalar ManetSim.node[47].nic.mac1609_4 	SNIRLostPackets 	0
scalar ManetSim.node[47].nic.mac1609_4 	RXTXLostPackets 	0
scalar ManetSim.node[47].nic.mac1609_4 	TotalLostPackets 	0
scalar ManetSim.node[47].nic.mac1609_4 	DroppedPacketsInMac 	0
scalar ManetSim.node[47].nic.mac1609_4 	TooLittleTime 	0
scalar ManetSim.node[47].nic.mac1609_4 	TimesIntoBackoff 	1
scalar ManetSim.node[47].nic.mac1609_4 	SlotsBackoff 	3
scalar ManetSim.node[47].nic.mac1609_4 	NumInternalContention 	0
scalar ManetSim.node[47].nic.mac1609_4 	totalBusyTime 	0.001685999995
scalar ManetSim.node[47].mobility 	startTime 	141.1
scalar ManetSim.node[47].mobility 	totalTime 	306.3
scalar ManetSim.node[47].mobility 	stopTime 	447.5
scalar ManetSim.node[47].mobility 	minSpeed 	0
scalar ManetSim.node[47].mobility 	maxSpeed 	13.999974413444
scalar ManetSim.node[47].mobility 	totalDistance 	3409.382517245
scalar ManetSim.node[47].mobility 	totalCO2Emission 	764.51542943069
scalar ManetSim.node[48].nic.phy80211p 	busyTime 	5.121024623901e-006
scalar ManetSim.node[48].nic.mac1609_4 	ReceivedUnicastPackets 	0
scalar ManetSim.node[48].nic.mac1609_4 	ReceivedBroadcasts 	14
scalar ManetSim.node[48].nic.mac1609_4 	SentPackets 	1
scalar ManetSim.node[48].nic.mac1609_4 	SNIRLostPackets 	0
scalar ManetSim.node[48].nic.mac1609_4 	RXTXLostPackets 	0
scalar ManetSim.node[48].nic.mac1609_4 	TotalLostPackets 	0
scalar ManetSim.node[48].nic.mac1609_4 	DroppedPacketsInMac 	0
scalar ManetSim.node[48].nic.mac1609_4 	TooLittleTime 	0
scalar ManetSim.node[48].nic.mac1609_4 	TimesIntoBackoff 	1
scalar ManetSim.node[48].nic.mac1609_4 	SlotsBackoff 	3
scalar ManetSim.node[48].nic.mac1609_4 	NumInternalContention 	0
scalar ManetSim.node[48].nic.mac1609_4 	totalBusyTime 	0.001685999995
scalar ManetSim.node[48].mobility 	startTime 	144.1
scalar ManetSim.node[48].mobility 	totalTime 	307
scalar ManetSim.node[48].mobility 	stopTime 	451.2
scalar ManetSim.node[48].mobility 	minSpeed 	0.010902572951456
scalar ManetSim.node[48].mobility 	maxSpeed 	13.999967419936
scalar ManetSim.node[48].mobility 	totalDistance 	3409.1436433155
scalar ManetSim.node[48].mobility 	totalCO2Emission 	763.84109283324
scalar ManetSim.node[49].nic.phy80211p 	busyTime 	5.4725560084443e-006
scalar ManetSim.node[49].nic.mac1609_4 	ReceivedUnicastPackets 	0
scalar ManetSim.node[49].nic.mac1609_4 	ReceivedBroadcasts 	15
scalar ManetSim.node[49].nic.mac1609_4 	SentPackets 	1
scalar ManetSim.node[49].nic.mac1609_4 	SNIRLostPackets 	0
scalar ManetSim.node[49].nic.mac1609_4 	RXTXLostPackets 	0
scalar ManetSim.node[49].nic.mac1609_4 	TotalLostPackets 	0
scalar ManetSim.node[49].nic.mac1609_4 	DroppedPacketsInMac 	0
scalar ManetSim.node[49].nic.mac1609_4 	TooLittleTime 	0
scalar ManetSim.node[49].nic.mac1609_4 	TimesIntoBackoff 	1
scalar ManetSim.node[49].nic.mac1609_4 	SlotsBackoff 	1
scalar ManetSim.node[49].nic.mac1609_4 	NumInternalContention 	0
scalar ManetSim.node[49].nic.mac1609_4 	totalBusyTime 	0.001798333328
scalar ManetSim.node[49].mobility 	startTime 	147.1
scalar ManetSim.node[49].mobility 	totalTime 	307.8
scalar ManetSim.node[49].mobility 	stopTime 	455
scalar ManetSim.node[49].mobility 	minSpeed 	0.026706808429959
scalar ManetSim.node[49].mobility 	maxSpeed 	13.999913833649
scalar ManetSim.node[49].mobility 	totalDistance 	3409.9173320585
scalar ManetSim.node[49].mobility 	totalCO2Emission 	772.26851429907
scalar ManetSim.node[27].nic.phy80211p 	busyTime 	9.219839351337e-006
scalar ManetSim.node[27].nic.mac1609_4 	ReceivedUnicastPackets 	0
scalar ManetSim.node[27].nic.mac1609_4 	ReceivedBroadcasts 	25
scalar ManetSim.node[27].nic.mac1609_4 	SentPackets 	1
scalar ManetSim.node[27].nic.mac1609_4 	SNIRLostPackets 	6
scalar ManetSim.node[27].nic.mac1609_4 	RXTXLostPackets 	0
scalar ManetSim.node[27].nic.mac1609_4 	TotalLostPackets 	6
scalar ManetSim.node[27].nic.mac1609_4 	DroppedPacketsInMac 	0
scalar ManetSim.node[27].nic.mac1609_4 	TooLittleTime 	0
scalar ManetSim.node[27].nic.mac1609_4 	TimesIntoBackoff 	2
scalar ManetSim.node[27].nic.mac1609_4 	SlotsBackoff 	5
scalar ManetSim.node[27].nic.mac1609_4 	NumInternalContention 	0
scalar ManetSim.node[27].nic.mac1609_4 	totalBusyTime 	0.003362119958
scalar ManetSim.node[27].mobility 	startTime 	81.1
scalar ManetSim.node[27].mobility 	totalTime 	377.6
scalar ManetSim.node[27].mobility 	stopTime 	458.8
scalar ManetSim.node[27].mobility 	minSpeed 	0
scalar ManetSim.node[27].mobility 	maxSpeed 	13.999777668281
scalar ManetSim.node[27].mobility 	totalDistance 	3269.2628480589
scalar ManetSim.node[27].mobility 	totalCO2Emission 	884.29651034884
scalar ManetSim.node[12].nic.phy80211p 	busyTime 	1.0271981212192e-005
scalar ManetSim.node[12].nic.mac1609_4 	ReceivedUnicastPackets 	0
scalar ManetSim.node[12].nic.mac1609_4 	ReceivedBroadcasts 	27
scalar ManetSim.node[12].nic.mac1609_4 	SentPackets 	1
scalar ManetSim.node[12].nic.mac1609_4 	SNIRLostPackets 	12
scalar ManetSim.node[12].nic.mac1609_4 	RXTXLostPackets 	0
scalar ManetSim.node[12].nic.mac1609_4 	TotalLostPackets 	12
scalar ManetSim.node[12].nic.mac1609_4 	DroppedPacketsInMac 	0
scalar ManetSim.node[12].nic.mac1609_4 	TooLittleTime 	0
scalar ManetSim.node[12].nic.mac1609_4 	TimesIntoBackoff 	1
scalar ManetSim.node[12].nic.mac1609_4 	SlotsBackoff 	3
scalar ManetSim.node[12].nic.mac1609_4 	NumInternalContention 	0
scalar ManetSim.node[12].nic.mac1609_4 	totalBusyTime 	0.004039637782
scalar ManetSim.node[12].mobility 	startTime 	36.1
scalar ManetSim.node[12].mobility 	totalTime 	426.4
scalar ManetSim.node[12].mobility 	stopTime 	462.6
scalar ManetSim.node[12].mobility 	minSpeed 	0
scalar ManetSim.node[12].mobility 	maxSpeed 	13.99904177139
scalar ManetSim.node[12].mobility 	totalDistance 	4036.2552834883
scalar ManetSim.node[12].mobility 	totalCO2Emission 	1025.9847014573
scalar ManetSim.node[13].nic.phy80211p 	busyTime 	9.7269677533349e-006
scalar ManetSim.node[13].nic.mac1609_4 	ReceivedUnicastPackets 	0
scalar ManetSim.node[13].nic.mac1609_4 	ReceivedBroadcasts 	25
scalar ManetSim.node[13].nic.mac1609_4 	SentPackets 	1
scalar ManetSim.node[13].nic.mac1609_4 	SNIRLostPackets 	12
scalar ManetSim.node[13].nic.mac1609_4 	RXTXLostPackets 	0
scalar ManetSim.node[13].nic.mac1609_4 	TotalLostPackets 	12
scalar ManetSim.node[13].nic.mac1609_4 	DroppedPacketsInMac 	0
scalar ManetSim.node[13].nic.mac1609_4 	TooLittleTime 	0
scalar ManetSim.node[13].nic.mac1609_4 	TimesIntoBackoff 	1
scalar ManetSim.node[13].nic.mac1609_4 	SlotsBackoff 	3
scalar ManetSim.node[13].nic.mac1609_4 	NumInternalContention 	0
scalar ManetSim.node[13].nic.mac1609_4 	totalBusyTime 	0.003853136843
scalar ManetSim.node[13].mobility 	startTime 	39.1
scalar ManetSim.node[13].mobility 	totalTime 	427.2
scalar ManetSim.node[13].mobility 	stopTime 	466.4
scalar ManetSim.node[13].mobility 	minSpeed 	0
scalar ManetSim.node[13].mobility 	maxSpeed 	13.999936781079
scalar ManetSim.node[13].mobility 	totalDistance 	4035.5015378943
scalar ManetSim.node[13].mobility 	totalCO2Emission 	1027.5857310999
scalar ManetSim.node[14].nic.phy80211p 	busyTime 	9.1839912520439e-006
scalar ManetSim.node[14].nic.mac1609_4 	ReceivedUnicastPackets 	0
scalar ManetSim.node[14].nic.mac1609_4 	ReceivedBroadcasts 	27
scalar ManetSim.node[14].nic.mac1609_4 	SentPackets 	1
scalar ManetSim.node[14].nic.mac1609_4 	SNIRLostPackets 	8
scalar ManetSim.node[14].nic.mac1609_4 	RXTXLostPackets 	0
scalar ManetSim.node[14].nic.mac1609_4 	TotalLostPackets 	8
scalar ManetSim.node[14].nic.mac1609_4 	DroppedPacketsInMac 	0
scalar ManetSim.node[14].nic.mac1609_4 	TooLittleTime 	0
scalar ManetSim.node[14].nic.mac1609_4 	TimesIntoBackoff 	2
scalar ManetSim.node[14].nic.mac1609_4 	SlotsBackoff 	5
scalar ManetSim.node[14].nic.mac1609_4 	NumInternalContention 	0
scalar ManetSim.node[14].nic.mac1609_4 	totalBusyTime 	0.003848874477
scalar ManetSim.node[14].mobility 	startTime 	42.1
scalar ManetSim.node[14].mobility 	totalTime 	428
scalar ManetSim.node[14].mobility 	stopTime 	470.2
scalar ManetSim.node[14].mobility 	minSpeed 	0
scalar ManetSim.node[14].mobility 	maxSpeed 	13.99988183927
scalar ManetSim.node[14].mobility 	totalDistance 	4035.3769654195
scalar ManetSim.node[14].mobility 	totalCO2Emission 	1028.232800198
scalar ManetSim.node[15].nic.phy80211p 	busyTime 	9.1668609349499e-006
scalar ManetSim.node[15].nic.mac1609_4 	ReceivedUnicastPackets 	0
scalar ManetSim.node[15].nic.mac1609_4 	ReceivedBroadcasts 	27
scalar ManetSim.node[15].nic.mac1609_4 	SentPackets 	1
scalar ManetSim.node[15].nic.mac1609_4 	SNIRLostPackets 	8
scalar ManetSim.node[15].nic.mac1609_4 	RXTXLostPackets 	0
scalar ManetSim.node[15].nic.mac1609_4 	TotalLostPackets 	8
scalar ManetSim.node[15].nic.mac1609_4 	DroppedPacketsInMac 	0
scalar ManetSim.node[15].nic.mac1609_4 	TooLittleTime 	0
scalar ManetSim.node[15].nic.mac1609_4 	TimesIntoBackoff 	1
scalar ManetSim.node[15].nic.mac1609_4 	SlotsBackoff 	7
scalar ManetSim.node[15].nic.mac1609_4 	NumInternalContention 	0
scalar ManetSim.node[15].nic.mac1609_4 	totalBusyTime 	0.003848781826
scalar ManetSim.node[15].mobility 	startTime 	45.1
scalar ManetSim.node[15].mobility 	totalTime 	428.8
scalar ManetSim.node[15].mobility 	stopTime 	474
scalar ManetSim.node[15].mobility 	minSpeed 	0
scalar ManetSim.node[15].mobility 	maxSpeed 	13.999993912049
scalar ManetSim.node[15].mobility 	totalDistance 	4035.6735101773
scalar ManetSim.node[15].mobility 	totalCO2Emission 	1035.6868548442
scalar ManetSim.node[16].nic.phy80211p 	busyTime 	9.1497944030719e-006
scalar ManetSim.node[16].nic.mac1609_4 	ReceivedUnicastPackets 	0
scalar ManetSim.node[16].nic.mac1609_4 	ReceivedBroadcasts 	29
scalar ManetSim.node[16].nic.mac1609_4 	SentPackets 	1
scalar ManetSim.node[16].nic.mac1609_4 	SNIRLostPackets 	6
scalar ManetSim.node[16].nic.mac1609_4 	RXTXLostPackets 	0
scalar ManetSim.node[16].nic.mac1609_4 	TotalLostPackets 	6
scalar ManetSim.node[16].nic.mac1609_4 	DroppedPacketsInMac 	0
scalar ManetSim.node[16].nic.mac1609_4 	TooLittleTime 	0
scalar ManetSim.node[16].nic.mac1609_4 	TimesIntoBackoff 	1
scalar ManetSim.node[16].nic.mac1609_4 	SlotsBackoff 	6
scalar ManetSim.node[16].nic.mac1609_4 	NumInternalContention 	0
scalar ManetSim.node[16].nic.mac1609_4 	totalBusyTime 	0.003894658753
scalar ManetSim.node[16].mobility 	startTime 	48.1
scalar ManetSim.node[16].mobility 	totalTime 	429.6
scalar ManetSim.node[16].mobility 	stopTime 	477.8
scalar ManetSim.node[16].mobility 	minSpeed 	0
scalar ManetSim.node[16].mobility 	maxSpeed 	13.99999615866
scalar ManetSim.node[16].mobility 	totalDistance 	4035.5897523891
scalar ManetSim.node[16].mobility 	totalCO2Emission 	1034.0733214031
scalar ManetSim.node[17].nic.phy80211p 	busyTime 	9.6546650894309e-006
scalar ManetSim.node[17].nic.mac1609_4 	ReceivedUnicastPackets 	0
scalar ManetSim.node[17].nic.mac1609_4 	ReceivedBroadcasts 	29
scalar ManetSim.node[17].nic.mac1609_4 	SentPackets 	1
scalar ManetSim.node[17].nic.mac1609_4 	SNIRLostPackets 	8
scalar ManetSim.node[17].nic.mac1609_4 	RXTXLostPackets 	0
scalar ManetSim.node[17].nic.mac1609_4 	TotalLostPackets 	8
scalar ManetSim.node[17].nic.mac1609_4 	DroppedPacketsInMac 	0
scalar ManetSim.node[17].nic.mac1609_4 	TooLittleTime 	0
scalar ManetSim.node[17].nic.mac1609_4 	TimesIntoBackoff 	1
scalar ManetSim.node[17].nic.mac1609_4 	SlotsBackoff 	7
scalar ManetSim.node[17].nic.mac1609_4 	NumInternalContention 	0
scalar ManetSim.node[17].nic.mac1609_4 	totalBusyTime 	0.004007762157
scalar ManetSim.node[17].mobility 	startTime 	51.1
scalar ManetSim.node[17].mobility 	totalTime 	430.4
scalar ManetSim.node[17].mobility 	stopTime 	481.6
scalar ManetSim.node[17].mobility 	minSpeed 	0
scalar ManetSim.node[17].mobility 	maxSpeed 	13.999813224142
scalar ManetSim.node[17].mobility 	totalDistance 	4035.3899385092
scalar ManetSim.node[17].mobility 	totalCO2Emission 	1036.570015054
scalar ManetSim.node[18].nic.phy80211p 	busyTime 	9.6367570623696e-006
scalar ManetSim.node[18].nic.mac1609_4 	ReceivedUnicastPackets 	0
scalar ManetSim.node[18].nic.mac1609_4 	ReceivedBroadcasts 	29
scalar ManetSim.node[18].nic.mac1609_4 	SentPackets 	1
scalar ManetSim.node[18].nic.mac1609_4 	SNIRLostPackets 	8
scalar ManetSim.node[18].nic.mac1609_4 	RXTXLostPackets 	0
scalar ManetSim.node[18].nic.mac1609_4 	TotalLostPackets 	8
scalar ManetSim.node[18].nic.mac1609_4 	DroppedPacketsInMac 	0
scalar ManetSim.node[18].nic.mac1609_4 	TooLittleTime 	0
scalar ManetSim.node[18].nic.mac1609_4 	TimesIntoBackoff 	2
scalar ManetSim.node[18].nic.mac1609_4 	SlotsBackoff 	9
scalar ManetSim.node[18].nic.mac1609_4 	NumInternalContention 	0
scalar ManetSim.node[18].nic.mac1609_4 	totalBusyTime 	0.004029141316
scalar ManetSim.node[18].mobility 	startTime 	54.1
scalar ManetSim.node[18].mobility 	totalTime 	431.2
scalar ManetSim.node[18].mobility 	stopTime 	485.4
scalar ManetSim.node[18].mobility 	minSpeed 	0
scalar ManetSim.node[18].mobility 	maxSpeed 	13.999970024223
scalar ManetSim.node[18].mobility 	totalDistance 	4035.5213365861
scalar ManetSim.node[18].mobility 	totalCO2Emission 	1040.6803223963
scalar ManetSim.node[28].nic.phy80211p 	busyTime 	9.1530863925926e-006
scalar ManetSim.node[28].nic.mac1609_4 	ReceivedUnicastPackets 	0
scalar ManetSim.node[28].nic.mac1609_4 	ReceivedBroadcasts 	27
scalar ManetSim.node[28].nic.mac1609_4 	SentPackets 	1
scalar ManetSim.node[28].nic.mac1609_4 	SNIRLostPackets 	6
scalar ManetSim.node[28].nic.mac1609_4 	RXTXLostPackets 	0
scalar ManetSim.node[28].nic.mac1609_4 	TotalLostPackets 	6
scalar ManetSim.node[28].nic.mac1609_4 	DroppedPacketsInMac 	0
scalar ManetSim.node[28].nic.mac1609_4 	TooLittleTime 	0
scalar ManetSim.node[28].nic.mac1609_4 	TimesIntoBackoff 	1
scalar ManetSim.node[28].nic.mac1609_4 	SlotsBackoff 	1
scalar ManetSim.node[28].nic.mac1609_4 	NumInternalContention 	0
scalar ManetSim.node[28].nic.mac1609_4 	totalBusyTime 	0.003586660596
scalar ManetSim.node[28].mobility 	startTime 	84.1
scalar ManetSim.node[28].mobility 	totalTime 	404.9
scalar ManetSim.node[28].mobility 	stopTime 	489.1
scalar ManetSim.node[28].mobility 	minSpeed 	0
scalar ManetSim.node[28].mobility 	maxSpeed 	13.999790904108
scalar ManetSim.node[28].mobility 	totalDistance 	3269.129911124
scalar ManetSim.node[28].mobility 	totalCO2Emission 	925.59145511113
scalar ManetSim.node[50].nic.phy80211p 	busyTime 	1.1144830236358e-005
scalar ManetSim.node[50].nic.mac1609_4 	ReceivedUnicastPackets 	0
scalar ManetSim.node[50].nic.mac1609_4 	ReceivedBroadcasts 	30
scalar ManetSim.node[50].nic.mac1609_4 	SentPackets 	1
scalar ManetSim.node[50].nic.mac1609_4 	SNIRLostPackets 	4
scalar ManetSim.node[50].nic.mac1609_4 	RXTXLostPackets 	0
scalar ManetSim.node[50].nic.mac1609_4 	TotalLostPackets 	4
scalar ManetSim.node[50].nic.mac1609_4 	DroppedPacketsInMac 	0
scalar ManetSim.node[50].nic.mac1609_4 	TooLittleTime 	0
scalar ManetSim.node[50].nic.mac1609_4 	TimesIntoBackoff 	1
scalar ManetSim.node[50].nic.mac1609_4 	SlotsBackoff 	1
scalar ManetSim.node[50].nic.mac1609_4 	NumInternalContention 	0
scalar ManetSim.node[50].nic.mac1609_4 	totalBusyTime 	0.003759752932
scalar ManetSim.node[50].mobility 	startTime 	150.1
scalar ManetSim.node[50].mobility 	totalTime 	342.6
scalar ManetSim.node[50].mobility 	stopTime 	492.8
scalar ManetSim.node[50].mobility 	minSpeed 	0
scalar ManetSim.node[50].mobility 	maxSpeed 	13.999847896148
scalar ManetSim.node[50].mobility 	totalDistance 	3409.4897850093
scalar ManetSim.node[50].mobility 	totalCO2Emission 	814.46924528892
scalar ManetSim.node[51].nic.phy80211p 	busyTime 	1.1445900014556e-005
scalar ManetSim.node[51].nic.mac1609_4 	ReceivedUnicastPackets 	0
scalar ManetSim.node[51].nic.mac1609_4 	ReceivedBroadcasts 	29
scalar ManetSim.node[51].nic.mac1609_4 	SentPackets 	1
scalar ManetSim.node[51].nic.mac1609_4 	SNIRLostPackets 	6
scalar ManetSim.node[51].nic.mac1609_4 	RXTXLostPackets 	0
scalar ManetSim.node[51].nic.mac1609_4 	TotalLostPackets 	6
scalar ManetSim.node[51].nic.mac1609_4 	DroppedPacketsInMac 	0
scalar ManetSim.node[51].nic.mac1609_4 	TooLittleTime 	0
scalar ManetSim.node[51].nic.mac1609_4 	TimesIntoBackoff 	1
scalar ManetSim.node[51].nic.mac1609_4 	SlotsBackoff 	6
scalar ManetSim.node[51].nic.mac1609_4 	NumInternalContention 	0
scalar ManetSim.node[51].nic.mac1609_4 	totalBusyTime 	0.003826333623
scalar ManetSim.node[51].mobility 	startTime 	153.1
scalar ManetSim.node[51].mobility 	totalTime 	343.4
scalar ManetSim.node[51].mobility 	stopTime 	496.6
scalar ManetSim.node[51].mobility 	minSpeed 	0
scalar ManetSim.node[51].mobility 	maxSpeed 	13.999881185421
scalar ManetSim.node[51].mobility 	totalDistance 	3409.7433767907
scalar ManetSim.node[51].mobility 	totalCO2Emission 	818.65212449976
scalar ManetSim.node[52].nic.phy80211p 	busyTime 	1.2398102393262e-005
scalar ManetSim.node[52].nic.mac1609_4 	ReceivedUnicastPackets 	0
scalar ManetSim.node[52].nic.mac1609_4 	ReceivedBroadcasts 	32
scalar ManetSim.node[52].nic.mac1609_4 	SentPackets 	1
scalar ManetSim.node[52].nic.mac1609_4 	SNIRLostPackets 	6
scalar ManetSim.node[52].nic.mac1609_4 	RXTXLostPackets 	0
scalar ManetSim.node[52].nic.mac1609_4 	TotalLostPackets 	6
scalar ManetSim.node[52].nic.mac1609_4 	DroppedPacketsInMac 	0
scalar ManetSim.node[52].nic.mac1609_4 	TooLittleTime 	0
scalar ManetSim.node[52].nic.mac1609_4 	TimesIntoBackoff 	2
scalar ManetSim.node[52].nic.mac1609_4 	SlotsBackoff 	11
scalar ManetSim.node[52].nic.mac1609_4 	NumInternalContention 	0
scalar ManetSim.node[52].nic.mac1609_4 	totalBusyTime 	0.004163445377
scalar ManetSim.node[52].mobility 	startTime 	156.1
scalar ManetSim.node[52].mobility 	totalTime 	344.2
scalar ManetSim.node[52].mobility 	stopTime 	500.4
scalar ManetSim.node[52].mobility 	minSpeed 	0
scalar ManetSim.node[52].mobility 	maxSpeed 	13.999917183255
scalar ManetSim.node[52].mobility 	totalDistance 	3410.1113086363
scalar ManetSim.node[52].mobility 	totalCO2Emission 	815.48786934387
scalar ManetSim.node[53].nic.phy80211p 	busyTime 	1.1067323448276e-005
scalar ManetSim.node[53].nic.mac1609_4 	ReceivedUnicastPackets 	0
scalar ManetSim.node[53].nic.mac1609_4 	ReceivedBroadcasts 	34
scalar ManetSim.node[53].nic.mac1609_4 	SentPackets 	1
scalar ManetSim.node[53].nic.mac1609_4 	SNIRLostPackets 	0
scalar ManetSim.node[53].nic.mac1609_4 	RXTXLostPackets 	0
scalar ManetSim.node[53].nic.mac1609_4 	TotalLostPackets 	0
scalar ManetSim.node[53].nic.mac1609_4 	DroppedPacketsInMac 	0
scalar ManetSim.node[53].nic.mac1609_4 	TooLittleTime 	0
scalar ManetSim.node[53].nic.mac1609_4 	TimesIntoBackoff 	2
scalar ManetSim.node[53].nic.mac1609_4 	SlotsBackoff 	3
scalar ManetSim.node[53].nic.mac1609_4 	NumInternalContention 	0
scalar ManetSim.node[53].nic.mac1609_4 	totalBusyTime 	0.003932666655
scalar ManetSim.node[53].mobility 	startTime 	159.1
scalar ManetSim.node[53].mobility 	totalTime 	345
scalar ManetSim.node[53].mobility 	stopTime 	504.2
scalar ManetSim.node[53].mobility 	minSpeed 	0
scalar ManetSim.node[53].mobility 	maxSpeed 	13.999775156826
scalar ManetSim.node[53].mobility 	totalDistance 	3410.030614947
scalar ManetSim.node[53].mobility 	totalCO2Emission 	813.16060461277
scalar ManetSim.node[55].nic.phy80211p 	busyTime 	1.1138329897929e-005
scalar ManetSim.node[55].nic.mac1609_4 	ReceivedUnicastPackets 	0
scalar ManetSim.node[55].nic.mac1609_4 	ReceivedBroadcasts 	34
scalar ManetSim.node[55].nic.mac1609_4 	SentPackets 	1
scalar ManetSim.node[55].nic.mac1609_4 	SNIRLostPackets 	0
scalar ManetSim.node[55].nic.mac1609_4 	RXTXLostPackets 	0
scalar ManetSim.node[55].nic.mac1609_4 	TotalLostPackets 	0
scalar ManetSim.node[55].nic.mac1609_4 	DroppedPacketsInMac 	0
scalar ManetSim.node[55].nic.mac1609_4 	TooLittleTime 	0
scalar ManetSim.node[55].nic.mac1609_4 	TimesIntoBackoff 	2
scalar ManetSim.node[55].nic.mac1609_4 	SlotsBackoff 	12
scalar ManetSim.node[55].nic.mac1609_4 	NumInternalContention 	0
scalar ManetSim.node[55].nic.mac1609_4 	totalBusyTime 	0.003932666655
scalar ManetSim.node[55].mobility 	startTime 	165.1
scalar ManetSim.node[55].mobility 	totalTime 	342.8
scalar ManetSim.node[55].mobility 	stopTime 	508
scalar ManetSim.node[55].mobility 	minSpeed 	0
scalar ManetSim.node[55].mobility 	maxSpeed 	13.999929609504
scalar ManetSim.node[55].mobility 	totalDistance 	3410.0523510912
scalar ManetSim.node[55].mobility 	totalCO2Emission 	812.1068878454
scalar ManetSim.node[64].nic.phy80211p 	busyTime 	5.6236962703379e-006
scalar ManetSim.node[64].nic.mac1609_4 	ReceivedUnicastPackets 	0
scalar ManetSim.node[64].nic.mac1609_4 	ReceivedBroadcasts 	16
scalar ManetSim.node[64].nic.mac1609_4 	SentPackets 	1
scalar ManetSim.node[64].nic.mac1609_4 	SNIRLostPackets 	0
scalar ManetSim.node[64].nic.mac1609_4 	RXTXLostPackets 	0
scalar ManetSim.node[64].nic.mac1609_4 	TotalLostPackets 	0
scalar ManetSim.node[64].nic.mac1609_4 	DroppedPacketsInMac 	0
scalar ManetSim.node[64].nic.mac1609_4 	TooLittleTime 	0
scalar ManetSim.node[64].nic.mac1609_4 	TimesIntoBackoff 	1
scalar ManetSim.node[64].nic.mac1609_4 	SlotsBackoff 	7
scalar ManetSim.node[64].nic.mac1609_4 	NumInternalContention 	0
scalar ManetSim.node[64].nic.mac1609_4 	totalBusyTime 	0.001910666661
scalar ManetSim.node[64].mobility 	startTime 	192.1
scalar ManetSim.node[64].mobility 	totalTime 	319.5
scalar ManetSim.node[64].mobility 	stopTime 	511.7
scalar ManetSim.node[64].mobility 	minSpeed 	0.098260178808206
scalar ManetSim.node[64].mobility 	maxSpeed 	13.999917753595
scalar ManetSim.node[64].mobility 	totalDistance 	3409.2028365024
scalar ManetSim.node[64].mobility 	totalCO2Emission 	769.73934828953
scalar ManetSim.node[65].nic.phy80211p 	busyTime 	5.6096545817728e-006
scalar ManetSim.node[65].nic.mac1609_4 	ReceivedUnicastPackets 	0
scalar ManetSim.node[65].nic.mac1609_4 	ReceivedBroadcasts 	16
scalar ManetSim.node[65].nic.mac1609_4 	SentPackets 	1
scalar ManetSim.node[65].nic.mac1609_4 	SNIRLostPackets 	0
scalar ManetSim.node[65].nic.mac1609_4 	RXTXLostPackets 	0
scalar ManetSim.node[65].nic.mac1609_4 	TotalLostPackets 	0
scalar ManetSim.node[65].nic.mac1609_4 	DroppedPacketsInMac 	0
scalar ManetSim.node[65].nic.mac1609_4 	TooLittleTime 	0
scalar ManetSim.node[65].nic.mac1609_4 	TimesIntoBackoff 	1
scalar ManetSim.node[65].nic.mac1609_4 	SlotsBackoff 	5
scalar ManetSim.node[65].nic.mac1609_4 	NumInternalContention 	0
scalar ManetSim.node[65].nic.mac1609_4 	totalBusyTime 	0.001910666661
scalar ManetSim.node[65].mobility 	startTime 	195.1
scalar ManetSim.node[65].mobility 	totalTime 	320.3
scalar ManetSim.node[65].mobility 	stopTime 	515.5
scalar ManetSim.node[65].mobility 	minSpeed 	0.251104008856
scalar ManetSim.node[65].mobility 	maxSpeed 	13.999963265473
scalar ManetSim.node[65].mobility 	totalDistance 	3409.9859839644
scalar ManetSim.node[65].mobility 	totalCO2Emission 	775.83592618723
scalar ManetSim.node[66].nic.phy80211p 	busyTime 	5.945413016812e-006
scalar ManetSim.node[66].nic.mac1609_4 	ReceivedUnicastPackets 	0
scalar ManetSim.node[66].nic.mac1609_4 	ReceivedBroadcasts 	17
scalar ManetSim.node[66].nic.mac1609_4 	SentPackets 	1
scalar ManetSim.node[66].nic.mac1609_4 	SNIRLostPackets 	0
scalar ManetSim.node[66].nic.mac1609_4 	RXTXLostPackets 	0
scalar ManetSim.node[66].nic.mac1609_4 	TotalLostPackets 	0
scalar ManetSim.node[66].nic.mac1609_4 	DroppedPacketsInMac 	0
scalar ManetSim.node[66].nic.mac1609_4 	TooLittleTime 	0
scalar ManetSim.node[66].nic.mac1609_4 	TimesIntoBackoff 	2
scalar ManetSim.node[66].nic.mac1609_4 	SlotsBackoff 	7
scalar ManetSim.node[66].nic.mac1609_4 	NumInternalContention 	0
scalar ManetSim.node[66].nic.mac1609_4 	totalBusyTime 	0.002022999994
scalar ManetSim.node[66].mobility 	startTime 	198.1
scalar ManetSim.node[66].mobility 	totalTime 	321.1
scalar ManetSim.node[66].mobility 	stopTime 	519.3
scalar ManetSim.node[66].mobility 	minSpeed 	0.24858744910965
scalar ManetSim.node[66].mobility 	maxSpeed 	13.999685202618
scalar ManetSim.node[66].mobility 	totalDistance 	3409.8864662068
scalar ManetSim.node[66].mobility 	totalCO2Emission 	776.61356270531
scalar ManetSim.node[67].nic.phy80211p 	busyTime 	5.9306418043478e-006
scalar ManetSim.node[67].nic.mac1609_4 	ReceivedUnicastPackets 	0
scalar ManetSim.node[67].nic.mac1609_4 	ReceivedBroadcasts 	17
scalar ManetSim.node[67].nic.mac1609_4 	SentPackets 	1
scalar ManetSim.node[67].nic.mac1609_4 	SNIRLostPackets 	0
scalar ManetSim.node[67].nic.mac1609_4 	RXTXLostPackets 	0
scalar ManetSim.node[67].nic.mac1609_4 	TotalLostPackets 	0
scalar ManetSim.node[67].nic.mac1609_4 	DroppedPacketsInMac 	0
scalar ManetSim.node[67].nic.mac1609_4 	TooLittleTime 	0
scalar ManetSim.node[67].nic.mac1609_4 	TimesIntoBackoff 	1
scalar ManetSim.node[67].nic.mac1609_4 	SlotsBackoff 	6
scalar ManetSim.node[67].nic.mac1609_4 	NumInternalContention 	0
scalar ManetSim.node[67].nic.mac1609_4 	totalBusyTime 	0.002022999994
scalar ManetSim.node[67].mobility 	startTime 	201.1
scalar ManetSim.node[67].mobility 	totalTime 	321.9
scalar ManetSim.node[67].mobility 	stopTime 	523.1
scalar ManetSim.node[67].mobility 	minSpeed 	0.25508036354114
scalar ManetSim.node[67].mobility 	maxSpeed 	13.999965650802
scalar ManetSim.node[67].mobility 	totalDistance 	3410.0650107119
scalar ManetSim.node[67].mobility 	totalCO2Emission 	775.92747626264
scalar ManetSim.node[68].nic.phy80211p 	busyTime 	6.2639405018587e-006
scalar ManetSim.node[68].nic.mac1609_4 	ReceivedUnicastPackets 	0
scalar ManetSim.node[68].nic.mac1609_4 	ReceivedBroadcasts 	18
scalar ManetSim.node[68].nic.mac1609_4 	SentPackets 	1
scalar ManetSim.node[68].nic.mac1609_4 	SNIRLostPackets 	0
scalar ManetSim.node[68].nic.mac1609_4 	RXTXLostPackets 	0
scalar ManetSim.node[68].nic.mac1609_4 	TotalLostPackets 	0
scalar ManetSim.node[68].nic.mac1609_4 	DroppedPacketsInMac 	0
scalar ManetSim.node[68].nic.mac1609_4 	TooLittleTime 	0
scalar ManetSim.node[68].nic.mac1609_4 	TimesIntoBackoff 	2
scalar ManetSim.node[68].nic.mac1609_4 	SlotsBackoff 	1
scalar ManetSim.node[68].nic.mac1609_4 	NumInternalContention 	0
scalar ManetSim.node[68].nic.mac1609_4 	totalBusyTime 	0.002135333327
scalar ManetSim.node[68].mobility 	startTime 	204.1
scalar ManetSim.node[68].mobility 	totalTime 	322.7
scalar ManetSim.node[68].mobility 	stopTime 	526.9
scalar ManetSim.node[68].mobility 	minSpeed 	0.25207350644167
scalar ManetSim.node[68].mobility 	maxSpeed 	13.999966969609
scalar ManetSim.node[68].mobility 	totalDistance 	3409.7628382071
scalar ManetSim.node[68].mobility 	totalCO2Emission 	773.2922889827
scalar ManetSim.node[69].nic.phy80211p 	busyTime 	6.2484548640297e-006
scalar ManetSim.node[69].nic.mac1609_4 	ReceivedUnicastPackets 	0
scalar ManetSim.node[69].nic.mac1609_4 	ReceivedBroadcasts 	18
scalar ManetSim.node[69].nic.mac1609_4 	SentPackets 	1
scalar ManetSim.node[69].nic.mac1609_4 	SNIRLostPackets 	0
scalar ManetSim.node[69].nic.mac1609_4 	RXTXLostPackets 	0
scalar ManetSim.node[69].nic.mac1609_4 	TotalLostPackets 	0
scalar ManetSim.node[69].nic.mac1609_4 	DroppedPacketsInMac 	0
scalar ManetSim.node[69].nic.mac1609_4 	TooLittleTime 	0
scalar ManetSim.node[69].nic.mac1609_4 	TimesIntoBackoff 	1
scalar ManetSim.node[69].nic.mac1609_4 	SlotsBackoff 	2
scalar ManetSim.node[69].nic.mac1609_4 	NumInternalContention 	0
scalar ManetSim.node[69].nic.mac1609_4 	totalBusyTime 	0.002135333327
scalar ManetSim.node[69].mobility 	startTime 	207.1
scalar ManetSim.node[69].mobility 	totalTime 	323.5
scalar ManetSim.node[69].mobility 	stopTime 	530.7
scalar ManetSim.node[69].mobility 	minSpeed 	0.24757049825392
scalar ManetSim.node[69].mobility 	maxSpeed 	13.999978456188
scalar ManetSim.node[69].mobility 	totalDistance 	3410.0769926625
scalar ManetSim.node[69].mobility 	totalCO2Emission 	773.83435987912
scalar ManetSim.node[29].nic.phy80211p 	busyTime 	8.2856504000894e-006
scalar ManetSim.node[29].nic.mac1609_4 	ReceivedUnicastPackets 	0
scalar ManetSim.node[29].nic.mac1609_4 	ReceivedBroadcasts 	27
scalar ManetSim.node[29].nic.mac1609_4 	SentPackets 	1
scalar ManetSim.node[29].nic.mac1609_4 	SNIRLostPackets 	6
scalar ManetSim.node[29].nic.mac1609_4 	RXTXLostPackets 	0
scalar ManetSim.node[29].nic.mac1609_4 	TotalLostPackets 	6
scalar ManetSim.node[29].nic.mac1609_4 	DroppedPacketsInMac 	0
scalar ManetSim.node[29].nic.mac1609_4 	TooLittleTime 	0
scalar ManetSim.node[29].nic.mac1609_4 	TimesIntoBackoff 	1
scalar ManetSim.node[29].nic.mac1609_4 	SlotsBackoff 	5
scalar ManetSim.node[29].nic.mac1609_4 	NumInternalContention 	0
scalar ManetSim.node[29].nic.mac1609_4 	totalBusyTime 	0.00358662598
scalar ManetSim.node[29].mobility 	startTime 	87.1
scalar ManetSim.node[29].mobility 	totalTime 	447.3
scalar ManetSim.node[29].mobility 	stopTime 	534.5
scalar ManetSim.node[29].mobility 	minSpeed 	0
scalar ManetSim.node[29].mobility 	maxSpeed 	13.999733011927
scalar ManetSim.node[29].mobility 	totalDistance 	3269.7527791514
scalar ManetSim.node[29].mobility 	totalCO2Emission 	971.06070284385
scalar ManetSim.node[39].nic.phy80211p 	busyTime 	3.7346631726431e-006
scalar ManetSim.node[39].nic.mac1609_4 	ReceivedUnicastPackets 	0
scalar ManetSim.node[39].nic.mac1609_4 	ReceivedBroadcasts 	12
scalar ManetSim.node[39].nic.mac1609_4 	SentPackets 	1
scalar ManetSim.node[39].nic.mac1609_4 	SNIRLostPackets 	2
scalar ManetSim.node[39].nic.mac1609_4 	RXTXLostPackets 	0
scalar ManetSim.node[39].nic.mac1609_4 	TotalLostPackets 	2
scalar ManetSim.node[39].nic.mac1609_4 	DroppedPacketsInMac 	0
scalar ManetSim.node[39].nic.mac1609_4 	TooLittleTime 	0
scalar ManetSim.node[39].nic.mac1609_4 	TimesIntoBackoff 	1
scalar ManetSim.node[39].nic.mac1609_4 	SlotsBackoff 	1
scalar ManetSim.node[39].nic.mac1609_4 	NumInternalContention 	0
scalar ManetSim.node[39].nic.mac1609_4 	totalBusyTime 	0.001573799939
scalar ManetSim.node[39].mobility 	startTime 	117.1
scalar ManetSim.node[39].mobility 	totalTime 	421
scalar ManetSim.node[39].mobility 	stopTime 	538.2
scalar ManetSim.node[39].mobility 	minSpeed 	0
scalar ManetSim.node[39].mobility 	maxSpeed 	13.999702064064
scalar ManetSim.node[39].mobility 	totalDistance 	3672.818679846
scalar ManetSim.node[39].mobility 	totalCO2Emission 	993.76105780081
scalar ManetSim.node[56].nic.phy80211p 	busyTime 	5.4093097752809e-006
scalar ManetSim.node[56].nic.mac1609_4 	ReceivedUnicastPackets 	0
scalar ManetSim.node[56].nic.mac1609_4 	ReceivedBroadcasts 	18
scalar ManetSim.node[56].nic.mac1609_4 	SentPackets 	1
scalar ManetSim.node[56].nic.mac1609_4 	SNIRLostPackets 	0
scalar ManetSim.node[56].nic.mac1609_4 	RXTXLostPackets 	0
scalar ManetSim.node[56].nic.mac1609_4 	TotalLostPackets 	0
scalar ManetSim.node[56].nic.mac1609_4 	DroppedPacketsInMac 	0
scalar ManetSim.node[56].nic.mac1609_4 	TooLittleTime 	0
scalar ManetSim.node[56].nic.mac1609_4 	TimesIntoBackoff 	1
scalar ManetSim.node[56].nic.mac1609_4 	SlotsBackoff 	3
scalar ManetSim.node[56].nic.mac1609_4 	NumInternalContention 	0
scalar ManetSim.node[56].nic.mac1609_4 	totalBusyTime 	0.002135333327
scalar ManetSim.node[56].mobility 	startTime 	168.1
scalar ManetSim.node[56].mobility 	totalTime 	373.7
scalar ManetSim.node[56].mobility 	stopTime 	541.9
scalar ManetSim.node[56].mobility 	minSpeed 	0
scalar ManetSim.node[56].mobility 	maxSpeed 	13.99987878968
scalar ManetSim.node[56].mobility 	totalDistance 	3268.9392569451
scalar ManetSim.node[56].mobility 	totalCO2Emission 	860.41097685494
scalar ManetSim.node[54].nic.phy80211p 	busyTime 	5.2724902059974e-006
scalar ManetSim.node[54].nic.mac1609_4 	ReceivedUnicastPackets 	0
scalar ManetSim.node[54].nic.mac1609_4 	ReceivedBroadcasts 	18
scalar ManetSim.node[54].nic.mac1609_4 	SentPackets 	1
scalar ManetSim.node[54].nic.mac1609_4 	SNIRLostPackets 	0
scalar ManetSim.node[54].nic.mac1609_4 	RXTXLostPackets 	0
scalar ManetSim.node[54].nic.mac1609_4 	TotalLostPackets 	0
scalar ManetSim.node[54].nic.mac1609_4 	DroppedPacketsInMac 	0
scalar ManetSim.node[54].nic.mac1609_4 	TooLittleTime 	0
scalar ManetSim.node[54].nic.mac1609_4 	TimesIntoBackoff 	1
scalar ManetSim.node[54].nic.mac1609_4 	SlotsBackoff 	1
scalar ManetSim.node[54].nic.mac1609_4 	NumInternalContention 	0
scalar ManetSim.node[54].nic.mac1609_4 	totalBusyTime 	0.002135333327
scalar ManetSim.node[54].mobility 	startTime 	162.1
scalar ManetSim.node[54].mobility 	totalTime 	383.4
scalar ManetSim.node[54].mobility 	stopTime 	545.6
scalar ManetSim.node[54].mobility 	minSpeed 	0
scalar ManetSim.node[54].mobility 	maxSpeed 	13.999760303933
scalar ManetSim.node[54].mobility 	totalDistance 	3366.9321100629
scalar ManetSim.node[54].mobility 	totalCO2Emission 	900.00500440195
scalar ManetSim.node[57].nic.phy80211p 	busyTime 	5.3449642981761e-006
scalar ManetSim.node[57].nic.mac1609_4 	ReceivedUnicastPackets 	0
scalar ManetSim.node[57].nic.mac1609_4 	ReceivedBroadcasts 	18
scalar ManetSim.node[57].nic.mac1609_4 	SentPackets 	1
scalar ManetSim.node[57].nic.mac1609_4 	SNIRLostPackets 	0
scalar ManetSim.node[57].nic.mac1609_4 	RXTXLostPackets 	0
scalar ManetSim.node[57].nic.mac1609_4 	TotalLostPackets 	0
scalar ManetSim.node[57].nic.mac1609_4 	DroppedPacketsInMac 	0
scalar ManetSim.node[57].nic.mac1609_4 	TooLittleTime 	0
scalar ManetSim.node[57].nic.mac1609_4 	TimesIntoBackoff 	1
scalar ManetSim.node[57].nic.mac1609_4 	SlotsBackoff 	4
scalar ManetSim.node[57].nic.mac1609_4 	NumInternalContention 	0
scalar ManetSim.node[57].nic.mac1609_4 	totalBusyTime 	0.002135333327
scalar ManetSim.node[57].mobility 	startTime 	171.1
scalar ManetSim.node[57].mobility 	totalTime 	378.2
scalar ManetSim.node[57].mobility 	stopTime 	549.4
scalar ManetSim.node[57].mobility 	minSpeed 	0
scalar ManetSim.node[57].mobility 	maxSpeed 	13.999266012716
scalar ManetSim.node[57].mobility 	totalDistance 	3269.3663750794
scalar ManetSim.node[57].mobility 	totalCO2Emission 	877.32551975393
scalar ManetSim.node[58].nic.phy80211p 	busyTime 	3.2594741835927e-006
scalar ManetSim.node[58].nic.mac1609_4 	ReceivedUnicastPackets 	0
scalar ManetSim.node[58].nic.mac1609_4 	ReceivedBroadcasts 	11
scalar ManetSim.node[58].nic.mac1609_4 	SentPackets 	1
scalar ManetSim.node[58].nic.mac1609_4 	SNIRLostPackets 	0
scalar ManetSim.node[58].nic.mac1609_4 	RXTXLostPackets 	0
scalar ManetSim.node[58].nic.mac1609_4 	TotalLostPackets 	0
scalar ManetSim.node[58].nic.mac1609_4 	DroppedPacketsInMac 	0
scalar ManetSim.node[58].nic.mac1609_4 	TooLittleTime 	0
scalar ManetSim.node[58].nic.mac1609_4 	TimesIntoBackoff 	1
scalar ManetSim.node[58].nic.mac1609_4 	SlotsBackoff 	1
scalar ManetSim.node[58].nic.mac1609_4 	NumInternalContention 	0
scalar ManetSim.node[58].nic.mac1609_4 	totalBusyTime 	0.001348999996
scalar ManetSim.node[58].mobility 	startTime 	174.1
scalar ManetSim.node[58].mobility 	totalTime 	379
scalar ManetSim.node[58].mobility 	stopTime 	553.2
scalar ManetSim.node[58].mobility 	minSpeed 	0
scalar ManetSim.node[58].mobility 	maxSpeed 	13.999813732372
scalar ManetSim.node[58].mobility 	totalDistance 	3269.754885913
scalar ManetSim.node[58].mobility 	totalCO2Emission 	877.28048747986
scalar ManetSim.node[59].nic.phy80211p 	busyTime 	3.2526103264017e-006
scalar ManetSim.node[59].nic.mac1609_4 	ReceivedUnicastPackets 	0
scalar ManetSim.node[59].nic.mac1609_4 	ReceivedBroadcasts 	11
scalar ManetSim.node[59].nic.mac1609_4 	SentPackets 	1
scalar ManetSim.node[59].nic.mac1609_4 	SNIRLostPackets 	0
scalar ManetSim.node[59].nic.mac1609_4 	RXTXLostPackets 	0
scalar ManetSim.node[59].nic.mac1609_4 	TotalLostPackets 	0
scalar ManetSim.node[59].nic.mac1609_4 	DroppedPacketsInMac 	0
scalar ManetSim.node[59].nic.mac1609_4 	TooLittleTime 	0
scalar ManetSim.node[59].nic.mac1609_4 	TimesIntoBackoff 	1
scalar ManetSim.node[59].nic.mac1609_4 	SlotsBackoff 	4
scalar ManetSim.node[59].nic.mac1609_4 	NumInternalContention 	0
scalar ManetSim.node[59].nic.mac1609_4 	totalBusyTime 	0.001348999996
scalar ManetSim.node[59].mobility 	startTime 	177.1
scalar ManetSim.node[59].mobility 	totalTime 	379.8
scalar ManetSim.node[59].mobility 	stopTime 	557
scalar ManetSim.node[59].mobility 	minSpeed 	0
scalar ManetSim.node[59].mobility 	maxSpeed 	13.999965662244
scalar ManetSim.node[59].mobility 	totalDistance 	3269.5822129548
scalar ManetSim.node[59].mobility 	totalCO2Emission 	878.46041226633
scalar ManetSim.node[40].nic.phy80211p 	busyTime 	3.5685651508963e-006
scalar ManetSim.node[40].nic.mac1609_4 	ReceivedUnicastPackets 	0
scalar ManetSim.node[40].nic.mac1609_4 	ReceivedBroadcasts 	12
scalar ManetSim.node[40].nic.mac1609_4 	SentPackets 	1
scalar ManetSim.node[40].nic.mac1609_4 	SNIRLostPackets 	2
scalar ManetSim.node[40].nic.mac1609_4 	RXTXLostPackets 	0
scalar ManetSim.node[40].nic.mac1609_4 	TotalLostPackets 	2
scalar ManetSim.node[40].nic.mac1609_4 	DroppedPacketsInMac 	0
scalar ManetSim.node[40].nic.mac1609_4 	TooLittleTime 	0
scalar ManetSim.node[40].nic.mac1609_4 	TimesIntoBackoff 	1
scalar ManetSim.node[40].nic.mac1609_4 	SlotsBackoff 	5
scalar ManetSim.node[40].nic.mac1609_4 	NumInternalContention 	0
scalar ManetSim.node[40].nic.mac1609_4 	totalBusyTime 	0.001573735134
scalar ManetSim.node[40].mobility 	startTime 	120.1
scalar ManetSim.node[40].mobility 	totalTime 	440.6
scalar ManetSim.node[40].mobility 	stopTime 	560.8
scalar ManetSim.node[40].mobility 	minSpeed 	0
scalar ManetSim.node[40].mobility 	maxSpeed 	13.999936656344
scalar ManetSim.node[40].mobility 	totalDistance 	3673.1168562757
scalar ManetSim.node[40].mobility 	totalCO2Emission 	1026.5796043802
scalar ManetSim.node[41].nic.phy80211p 	busyTime 	3.5620988946772e-006
scalar ManetSim.node[41].nic.mac1609_4 	ReceivedUnicastPackets 	0
scalar ManetSim.node[41].nic.mac1609_4 	ReceivedBroadcasts 	12
scalar ManetSim.node[41].nic.mac1609_4 	SentPackets 	1
scalar ManetSim.node[41].nic.mac1609_4 	SNIRLostPackets 	2
scalar ManetSim.node[41].nic.mac1609_4 	RXTXLostPackets 	0
scalar ManetSim.node[41].nic.mac1609_4 	TotalLostPackets 	2
scalar ManetSim.node[41].nic.mac1609_4 	DroppedPacketsInMac 	0
scalar ManetSim.node[41].nic.mac1609_4 	TooLittleTime 	0
scalar ManetSim.node[41].nic.mac1609_4 	TimesIntoBackoff 	1
scalar ManetSim.node[41].nic.mac1609_4 	SlotsBackoff 	6
scalar ManetSim.node[41].nic.mac1609_4 	NumInternalContention 	0
scalar ManetSim.node[41].nic.mac1609_4 	totalBusyTime 	0.001573721088
scalar ManetSim.node[41].mobility 	startTime 	123.1
scalar ManetSim.node[41].mobility 	totalTime 	441.4
scalar ManetSim.node[41].mobility 	stopTime 	564.6
scalar ManetSim.node[41].mobility 	minSpeed 	0
scalar ManetSim.node[41].mobility 	maxSpeed 	13.999946684309
scalar ManetSim.node[41].mobility 	totalDistance 	3673.035821197
scalar ManetSim.node[41].mobility 	totalCO2Emission 	1022.0796750269
scalar ManetSim.node[42].nic.phy80211p 	busyTime 	3.3016805991409e-006
scalar ManetSim.node[42].nic.mac1609_4 	ReceivedUnicastPackets 	0
scalar ManetSim.node[42].nic.mac1609_4 	ReceivedBroadcasts 	13
scalar ManetSim.node[42].nic.mac1609_4 	SentPackets 	1
scalar ManetSim.node[42].nic.mac1609_4 	SNIRLostPackets 	0
scalar ManetSim.node[42].nic.mac1609_4 	RXTXLostPackets 	1
scalar ManetSim.node[42].nic.mac1609_4 	TotalLostPackets 	1
scalar ManetSim.node[42].nic.mac1609_4 	DroppedPacketsInMac 	0
scalar ManetSim.node[42].nic.mac1609_4 	TooLittleTime 	0
scalar ManetSim.node[42].nic.mac1609_4 	TimesIntoBackoff 	1
scalar ManetSim.node[42].nic.mac1609_4 	SlotsBackoff 	6
scalar ManetSim.node[42].nic.mac1609_4 	NumInternalContention 	0
scalar ManetSim.node[42].nic.mac1609_4 	totalBusyTime 	0.001573947248
scalar ManetSim.node[42].mobility 	startTime 	126.1
scalar ManetSim.node[42].mobility 	totalTime 	442.2
scalar ManetSim.node[42].mobility 	stopTime 	568.4
scalar ManetSim.node[42].mobility 	minSpeed 	0
scalar ManetSim.node[42].mobility 	maxSpeed 	13.99915814982
scalar ManetSim.node[42].mobility 	totalDistance 	3672.7906738327
scalar ManetSim.node[42].mobility 	totalCO2Emission 	1013.0861995192
scalar ManetSim.node[70].nic.phy80211p 	busyTime 	7.1352296575532e-006
scalar ManetSim.node[70].nic.mac1609_4 	ReceivedUnicastPackets 	0
scalar ManetSim.node[70].nic.mac1609_4 	ReceivedBroadcasts 	21
scalar ManetSim.node[70].nic.mac1609_4 	SentPackets 	1
scalar ManetSim.node[70].nic.mac1609_4 	SNIRLostPackets 	2
scalar ManetSim.node[70].nic.mac1609_4 	RXTXLostPackets 	0
scalar ManetSim.node[70].nic.mac1609_4 	TotalLostPackets 	2
scalar ManetSim.node[70].nic.mac1609_4 	DroppedPacketsInMac 	0
scalar ManetSim.node[70].nic.mac1609_4 	TooLittleTime 	0
scalar ManetSim.node[70].nic.mac1609_4 	TimesIntoBackoff 	1
scalar ManetSim.node[70].nic.mac1609_4 	SlotsBackoff 	0
scalar ManetSim.node[70].nic.mac1609_4 	NumInternalContention 	0
scalar ManetSim.node[70].nic.mac1609_4 	totalBusyTime 	0.002584755416
scalar ManetSim.node[70].mobility 	startTime 	210.1
scalar ManetSim.node[70].mobility 	totalTime 	362
scalar ManetSim.node[70].mobility 	stopTime 	572.2
scalar ManetSim.node[70].mobility 	minSpeed 	0
scalar ManetSim.node[70].mobility 	maxSpeed 	13.999887454859
scalar ManetSim.node[70].mobility 	totalDistance 	3409.6542630409
scalar ManetSim.node[70].mobility 	totalCO2Emission 	826.80613151844
scalar ManetSim.node[71].nic.phy80211p 	busyTime 	7.1195003003582e-006
scalar ManetSim.node[71].nic.mac1609_4 	ReceivedUnicastPackets 	0
scalar ManetSim.node[71].nic.mac1609_4 	ReceivedBroadcasts 	21
scalar ManetSim.node[71].nic.mac1609_4 	SentPackets 	1
scalar ManetSim.node[71].nic.mac1609_4 	SNIRLostPackets 	2
scalar ManetSim.node[71].nic.mac1609_4 	RXTXLostPackets 	0
scalar ManetSim.node[71].nic.mac1609_4 	TotalLostPackets 	2
scalar ManetSim.node[71].nic.mac1609_4 	DroppedPacketsInMac 	0
scalar ManetSim.node[71].nic.mac1609_4 	TooLittleTime 	0
scalar ManetSim.node[71].nic.mac1609_4 	TimesIntoBackoff 	1
scalar ManetSim.node[71].nic.mac1609_4 	SlotsBackoff 	1
scalar ManetSim.node[71].nic.mac1609_4 	NumInternalContention 	0
scalar ManetSim.node[71].nic.mac1609_4 	totalBusyTime 	0.002584761003
scalar ManetSim.node[71].mobility 	startTime 	213.1
scalar ManetSim.node[71].mobility 	totalTime 	362.8
scalar ManetSim.node[71].mobility 	stopTime 	576
scalar ManetSim.node[71].mobility 	minSpeed 	0
scalar ManetSim.node[71].mobility 	maxSpeed 	13.999810682691
scalar ManetSim.node[71].mobility 	totalDistance 	3410.2430798306
scalar ManetSim.node[71].mobility 	totalCO2Emission 	812.97736567442
scalar ManetSim.node[72].nic.phy80211p 	busyTime 	7.1057938916392e-006
scalar ManetSim.node[72].nic.mac1609_4 	ReceivedUnicastPackets 	0
scalar ManetSim.node[72].nic.mac1609_4 	ReceivedBroadcasts 	21
scalar ManetSim.node[72].nic.mac1609_4 	SentPackets 	1
scalar ManetSim.node[72].nic.mac1609_4 	SNIRLostPackets 	2
scalar ManetSim.node[72].nic.mac1609_4 	RXTXLostPackets 	0
scalar ManetSim.node[72].nic.mac1609_4 	TotalLostPackets 	2
scalar ManetSim.node[72].nic.mac1609_4 	DroppedPacketsInMac 	0
scalar ManetSim.node[72].nic.mac1609_4 	TooLittleTime 	0
scalar ManetSim.node[72].nic.mac1609_4 	TimesIntoBackoff 	1
scalar ManetSim.node[72].nic.mac1609_4 	SlotsBackoff 	1
scalar ManetSim.node[72].nic.mac1609_4 	NumInternalContention 	0
scalar ManetSim.node[72].nic.mac1609_4 	totalBusyTime 	0.002584766077
scalar ManetSim.node[72].mobility 	startTime 	216.1
scalar ManetSim.node[72].mobility 	totalTime 	363.5
scalar ManetSim.node[72].mobility 	stopTime 	579.7
scalar ManetSim.node[72].mobility 	minSpeed 	0
scalar ManetSim.node[72].mobility 	maxSpeed 	13.999879790854
scalar ManetSim.node[72].mobility 	totalDistance 	3409.2647772564
scalar ManetSim.node[72].mobility 	totalCO2Emission 	803.40858396598
scalar ManetSim.node[73].nic.phy80211p 	busyTime 	7.0901939050494e-006
scalar ManetSim.node[73].nic.mac1609_4 	ReceivedUnicastPackets 	0
scalar ManetSim.node[73].nic.mac1609_4 	ReceivedBroadcasts 	21
scalar ManetSim.node[73].nic.mac1609_4 	SentPackets 	1
scalar ManetSim.node[73].nic.mac1609_4 	SNIRLostPackets 	2
scalar ManetSim.node[73].nic.mac1609_4 	RXTXLostPackets 	0
scalar ManetSim.node[73].nic.mac1609_4 	TotalLostPackets 	2
scalar ManetSim.node[73].nic.mac1609_4 	DroppedPacketsInMac 	0
scalar ManetSim.node[73].nic.mac1609_4 	TooLittleTime 	0
scalar ManetSim.node[73].nic.mac1609_4 	TimesIntoBackoff 	1
scalar ManetSim.node[73].nic.mac1609_4 	SlotsBackoff 	4
scalar ManetSim.node[73].nic.mac1609_4 	NumInternalContention 	0
scalar ManetSim.node[73].nic.mac1609_4 	totalBusyTime 	0.00258477083
scalar ManetSim.node[73].mobility 	startTime 	219.1
scalar ManetSim.node[73].mobility 	totalTime 	364.3
scalar ManetSim.node[73].mobility 	stopTime 	583.5
scalar ManetSim.node[73].mobility 	minSpeed 	0
scalar ManetSim.node[73].mobility 	maxSpeed 	13.999937894396
scalar ManetSim.node[73].mobility 	totalDistance 	3410.1462138334
scalar ManetSim.node[73].mobility 	totalCO2Emission 	809.26649111719
scalar ManetSim.node[74].nic.phy80211p 	busyTime 	7.0746622645126e-006
scalar ManetSim.node[74].nic.mac1609_4 	ReceivedUnicastPackets 	0
scalar ManetSim.node[74].nic.mac1609_4 	ReceivedBroadcasts 	21
scalar ManetSim.node[74].nic.mac1609_4 	SentPackets 	1
scalar ManetSim.node[74].nic.mac1609_4 	SNIRLostPackets 	2
scalar ManetSim.node[74].nic.mac1609_4 	RXTXLostPackets 	0
scalar ManetSim.node[74].nic.mac1609_4 	TotalLostPackets 	2
scalar ManetSim.node[74].nic.mac1609_4 	DroppedPacketsInMac 	0
scalar ManetSim.node[74].nic.mac1609_4 	TooLittleTime 	0
scalar ManetSim.node[74].nic.mac1609_4 	TimesIntoBackoff 	1
scalar ManetSim.node[74].nic.mac1609_4 	SlotsBackoff 	6
scalar ManetSim.node[74].nic.mac1609_4 	NumInternalContention 	0
scalar ManetSim.node[74].nic.mac1609_4 	totalBusyTime 	0.002584776161
scalar ManetSim.node[74].mobility 	startTime 	222.1
scalar ManetSim.node[74].mobility 	totalTime 	365.1
scalar ManetSim.node[74].mobility 	stopTime 	587.3
scalar ManetSim.node[74].mobility 	minSpeed 	0
scalar ManetSim.node[74].mobility 	maxSpeed 	13.99996744975
scalar ManetSim.node[74].mobility 	totalDistance 	3409.8557666556
scalar ManetSim.node[74].mobility 	totalCO2Emission 	810.10105011246
scalar ManetSim.node[75].nic.phy80211p 	busyTime 	7.0591985218579e-006
scalar ManetSim.node[75].nic.mac1609_4 	ReceivedUnicastPackets 	0
scalar ManetSim.node[75].nic.mac1609_4 	ReceivedBroadcasts 	21
scalar ManetSim.node[75].nic.mac1609_4 	SentPackets 	1
scalar ManetSim.node[75].nic.mac1609_4 	SNIRLostPackets 	2
scalar ManetSim.node[75].nic.mac1609_4 	RXTXLostPackets 	0
scalar ManetSim.node[75].nic.mac1609_4 	TotalLostPackets 	2
scalar ManetSim.node[75].nic.mac1609_4 	DroppedPacketsInMac 	0
scalar ManetSim.node[75].nic.mac1609_4 	TooLittleTime 	0
scalar ManetSim.node[75].nic.mac1609_4 	TimesIntoBackoff 	2
scalar ManetSim.node[75].nic.mac1609_4 	SlotsBackoff 	4
scalar ManetSim.node[75].nic.mac1609_4 	NumInternalContention 	0
scalar ManetSim.node[75].nic.mac1609_4 	totalBusyTime 	0.00258478446
scalar ManetSim.node[75].mobility 	startTime 	225.1
scalar ManetSim.node[75].mobility 	totalTime 	365.9
scalar ManetSim.node[75].mobility 	stopTime 	591.1
scalar ManetSim.node[75].mobility 	minSpeed 	0
scalar ManetSim.node[75].mobility 	maxSpeed 	13.99997879422
scalar ManetSim.node[75].mobility 	totalDistance 	3409.6837909474
scalar ManetSim.node[75].mobility 	totalCO2Emission 	814.43194362631
scalar ManetSim.node[76].nic.phy80211p 	busyTime 	7.3500545038168e-006
scalar ManetSim.node[76].nic.mac1609_4 	ReceivedUnicastPackets 	0
scalar ManetSim.node[76].nic.mac1609_4 	ReceivedBroadcasts 	20
scalar ManetSim.node[76].nic.mac1609_4 	SentPackets 	1
scalar ManetSim.node[76].nic.mac1609_4 	SNIRLostPackets 	4
scalar ManetSim.node[76].nic.mac1609_4 	RXTXLostPackets 	0
scalar ManetSim.node[76].nic.mac1609_4 	TotalLostPackets 	4
[...]
scalar ManetSim.node[186].nic.mac1609_4 	NumInternalContention 	0
scalar ManetSim.node[186].nic.mac1609_4 	totalBusyTime 	0.002135333327
scalar ManetSim.node[186].mobility 	startTime 	558.1
scalar ManetSim.node[186].mobility 	totalTime 	141.8
scalar ManetSim.node[186].mobility 	stopTime 	699.9
scalar ManetSim.node[186].mobility 	minSpeed 	0.2496114742863
scalar ManetSim.node[186].mobility 	maxSpeed 	13.999697774183
scalar ManetSim.node[186].mobility 	totalDistance 	1321.3269049553
scalar ManetSim.node[186].mobility 	totalCO2Emission 	365.57013050842
scalar ManetSim.node[187].nic.phy80211p 	busyTime 	1.7804995144092e-005
scalar ManetSim.node[187].nic.mac1609_4 	ReceivedUnicastPackets 	0
scalar ManetSim.node[187].nic.mac1609_4 	ReceivedBroadcasts 	18
scalar ManetSim.node[187].nic.mac1609_4 	SentPackets 	1
scalar ManetSim.node[187].nic.mac1609_4 	SNIRLostPackets 	4
scalar ManetSim.node[187].nic.mac1609_4 	RXTXLostPackets 	1
scalar ManetSim.node[187].nic.mac1609_4 	TotalLostPackets 	5
scalar ManetSim.node[187].nic.mac1609_4 	DroppedPacketsInMac 	0
scalar ManetSim.node[187].nic.mac1609_4 	TooLittleTime 	0
scalar ManetSim.node[187].nic.mac1609_4 	TimesIntoBackoff 	1
scalar ManetSim.node[187].nic.mac1609_4 	SlotsBackoff 	1
scalar ManetSim.node[187].nic.mac1609_4 	NumInternalContention 	0
scalar ManetSim.node[187].nic.mac1609_4 	totalBusyTime 	0.00246762833
scalar ManetSim.node[187].mobility 	startTime 	561.1
scalar ManetSim.node[187].mobility 	totalTime 	138.8
scalar ManetSim.node[187].mobility 	stopTime 	699.9
scalar ManetSim.node[187].mobility 	minSpeed 	0.24910370905581
scalar ManetSim.node[187].mobility 	maxSpeed 	13.999861269603
scalar ManetSim.node[187].mobility 	totalDistance 	1281.8874931305
scalar ManetSim.node[187].mobility 	totalCO2Emission 	362.07121849452
scalar ManetSim.node[188].nic.phy80211p 	busyTime 	1.9025527680412e-005
scalar ManetSim.node[188].nic.mac1609_4 	ReceivedUnicastPackets 	0
scalar ManetSim.node[188].nic.mac1609_4 	ReceivedBroadcasts 	17
scalar ManetSim.node[188].nic.mac1609_4 	SentPackets 	1
scalar ManetSim.node[188].nic.mac1609_4 	SNIRLostPackets 	6
scalar ManetSim.node[188].nic.mac1609_4 	RXTXLostPackets 	0
scalar ManetSim.node[188].nic.mac1609_4 	TotalLostPackets 	6
scalar ManetSim.node[188].nic.mac1609_4 	DroppedPacketsInMac 	0
scalar ManetSim.node[188].nic.mac1609_4 	TooLittleTime 	0
scalar ManetSim.node[188].nic.mac1609_4 	TimesIntoBackoff 	2
scalar ManetSim.node[188].nic.mac1609_4 	SlotsBackoff 	5
scalar ManetSim.node[188].nic.mac1609_4 	NumInternalContention 	0
scalar ManetSim.node[188].nic.mac1609_4 	totalBusyTime 	0.002467652656
scalar ManetSim.node[188].mobility 	startTime 	564.1
scalar ManetSim.node[188].mobility 	totalTime 	135.8
scalar ManetSim.node[188].mobility 	stopTime 	699.9
scalar ManetSim.node[188].mobility 	minSpeed 	0.25213147757272
scalar ManetSim.node[188].mobility 	maxSpeed 	13.999832630127
scalar ManetSim.node[188].mobility 	totalDistance 	1242.4719922038
scalar ManetSim.node[188].mobility 	totalCO2Emission 	355.35485813563
scalar ManetSim.node[189].nic.phy80211p 	busyTime 	1.945532122741e-005
scalar ManetSim.node[189].nic.mac1609_4 	ReceivedUnicastPackets 	0
scalar ManetSim.node[189].nic.mac1609_4 	ReceivedBroadcasts 	17
scalar ManetSim.node[189].nic.mac1609_4 	SentPackets 	1
scalar ManetSim.node[189].nic.mac1609_4 	SNIRLostPackets 	6
scalar ManetSim.node[189].nic.mac1609_4 	RXTXLostPackets 	0
scalar ManetSim.node[189].nic.mac1609_4 	TotalLostPackets 	6
scalar ManetSim.node[189].nic.mac1609_4 	DroppedPacketsInMac 	0
scalar ManetSim.node[189].nic.mac1609_4 	TooLittleTime 	0
scalar ManetSim.node[189].nic.mac1609_4 	TimesIntoBackoff 	1
scalar ManetSim.node[189].nic.mac1609_4 	SlotsBackoff 	7
scalar ManetSim.node[189].nic.mac1609_4 	NumInternalContention 	0
scalar ManetSim.node[189].nic.mac1609_4 	totalBusyTime 	0.002467669161
scalar ManetSim.node[189].mobility 	startTime 	567.1
scalar ManetSim.node[189].mobility 	totalTime 	132.8
scalar ManetSim.node[189].mobility 	stopTime 	699.9
scalar ManetSim.node[189].mobility 	minSpeed 	0
scalar ManetSim.node[189].mobility 	maxSpeed 	13.999968774761
scalar ManetSim.node[189].mobility 	totalDistance 	897.47506608144
scalar ManetSim.node[189].mobility 	totalCO2Emission 	296.89271422083
scalar ManetSim.node[190].nic.phy80211p 	busyTime 	3.4617359938367e-006
scalar ManetSim.node[190].nic.mac1609_4 	ReceivedUnicastPackets 	0
scalar ManetSim.node[190].nic.mac1609_4 	ReceivedBroadcasts 	4
scalar ManetSim.node[190].nic.mac1609_4 	SentPackets 	1
scalar ManetSim.node[190].nic.mac1609_4 	SNIRLostPackets 	0
scalar ManetSim.node[190].nic.mac1609_4 	RXTXLostPackets 	0
scalar ManetSim.node[190].nic.mac1609_4 	TotalLostPackets 	0
scalar ManetSim.node[190].nic.mac1609_4 	DroppedPacketsInMac 	0
scalar ManetSim.node[190].nic.mac1609_4 	TooLittleTime 	0
scalar ManetSim.node[190].nic.mac1609_4 	TimesIntoBackoff 	1
scalar ManetSim.node[190].nic.mac1609_4 	SlotsBackoff 	5
scalar ManetSim.node[190].nic.mac1609_4 	NumInternalContention 	0
scalar ManetSim.node[190].nic.mac1609_4 	totalBusyTime 	0.000562666665
scalar ManetSim.node[190].mobility 	startTime 	570.1
scalar ManetSim.node[190].mobility 	totalTime 	129.8
scalar ManetSim.node[190].mobility 	stopTime 	699.9
scalar ManetSim.node[190].mobility 	minSpeed 	0
scalar ManetSim.node[190].mobility 	maxSpeed 	13.999895259428
scalar ManetSim.node[190].mobility 	totalDistance 	822.80630285223
scalar ManetSim.node[190].mobility 	totalCO2Emission 	287.4232645533
scalar ManetSim.node[191].nic.phy80211p 	busyTime 	3.5436382649842e-006
scalar ManetSim.node[191].nic.mac1609_4 	ReceivedUnicastPackets 	0
scalar ManetSim.node[191].nic.mac1609_4 	ReceivedBroadcasts 	4
scalar ManetSim.node[191].nic.mac1609_4 	SentPackets 	1
scalar ManetSim.node[191].nic.mac1609_4 	SNIRLostPackets 	0
scalar ManetSim.node[191].nic.mac1609_4 	RXTXLostPackets 	0
scalar ManetSim.node[191].nic.mac1609_4 	TotalLostPackets 	0
scalar ManetSim.node[191].nic.mac1609_4 	DroppedPacketsInMac 	0
scalar ManetSim.node[191].nic.mac1609_4 	TooLittleTime 	0
scalar ManetSim.node[191].nic.mac1609_4 	TimesIntoBackoff 	1
scalar ManetSim.node[191].nic.mac1609_4 	SlotsBackoff 	7
scalar ManetSim.node[191].nic.mac1609_4 	NumInternalContention 	0
scalar ManetSim.node[191].nic.mac1609_4 	totalBusyTime 	0.000562666665
scalar ManetSim.node[191].mobility 	startTime 	573.1
scalar ManetSim.node[191].mobility 	totalTime 	126.8
scalar ManetSim.node[191].mobility 	stopTime 	699.9
scalar ManetSim.node[191].mobility 	minSpeed 	0
scalar ManetSim.node[191].mobility 	maxSpeed 	13.999891918085
scalar ManetSim.node[191].mobility 	totalDistance 	802.01907595701
scalar ManetSim.node[191].mobility 	totalCO2Emission 	284.25597122315
scalar ManetSim.node[192].nic.phy80211p 	busyTime 	3.6295099515347e-006
scalar ManetSim.node[192].nic.mac1609_4 	ReceivedUnicastPackets 	0
scalar ManetSim.node[192].nic.mac1609_4 	ReceivedBroadcasts 	4
scalar ManetSim.node[192].nic.mac1609_4 	SentPackets 	1
scalar ManetSim.node[192].nic.mac1609_4 	SNIRLostPackets 	0
scalar ManetSim.node[192].nic.mac1609_4 	RXTXLostPackets 	0
scalar ManetSim.node[192].nic.mac1609_4 	TotalLostPackets 	0
scalar ManetSim.node[192].nic.mac1609_4 	DroppedPacketsInMac 	0
scalar ManetSim.node[192].nic.mac1609_4 	TooLittleTime 	0
scalar ManetSim.node[192].nic.mac1609_4 	TimesIntoBackoff 	1
scalar ManetSim.node[192].nic.mac1609_4 	SlotsBackoff 	7
scalar ManetSim.node[192].nic.mac1609_4 	NumInternalContention 	0
scalar ManetSim.node[192].nic.mac1609_4 	totalBusyTime 	0.000562666665
scalar ManetSim.node[192].mobility 	startTime 	576.1
scalar ManetSim.node[192].mobility 	totalTime 	123.8
scalar ManetSim.node[192].mobility 	stopTime 	699.9
scalar ManetSim.node[192].mobility 	minSpeed 	0
scalar ManetSim.node[192].mobility 	maxSpeed 	13.998916711498
scalar ManetSim.node[192].mobility 	totalDistance 	782.32409149338
scalar ManetSim.node[192].mobility 	totalCO2Emission 	278.47468122654
scalar ManetSim.node[193].nic.phy80211p 	busyTime 	3.7196467880795e-006
scalar ManetSim.node[193].nic.mac1609_4 	ReceivedUnicastPackets 	0
scalar ManetSim.node[193].nic.mac1609_4 	ReceivedBroadcasts 	4
scalar ManetSim.node[193].nic.mac1609_4 	SentPackets 	1
scalar ManetSim.node[193].nic.mac1609_4 	SNIRLostPackets 	0
scalar ManetSim.node[193].nic.mac1609_4 	RXTXLostPackets 	0
scalar ManetSim.node[193].nic.mac1609_4 	TotalLostPackets 	0
scalar ManetSim.node[193].nic.mac1609_4 	DroppedPacketsInMac 	0
scalar ManetSim.node[193].nic.mac1609_4 	TooLittleTime 	0
scalar ManetSim.node[193].nic.mac1609_4 	TimesIntoBackoff 	1
scalar ManetSim.node[193].nic.mac1609_4 	SlotsBackoff 	5
scalar ManetSim.node[193].nic.mac1609_4 	NumInternalContention 	0
scalar ManetSim.node[193].nic.mac1609_4 	totalBusyTime 	0.000562666665
scalar ManetSim.node[193].mobility 	startTime 	579.1
scalar ManetSim.node[193].mobility 	totalTime 	120.8
scalar ManetSim.node[193].mobility 	stopTime 	699.9
scalar ManetSim.node[193].mobility 	minSpeed 	0
scalar ManetSim.node[193].mobility 	maxSpeed 	13.999388243128
scalar ManetSim.node[193].mobility 	totalDistance 	762.6267369978
scalar ManetSim.node[193].mobility 	totalCO2Emission 	275.76588975584
scalar ManetSim.node[194].nic.phy80211p 	busyTime 	3.8143746349745e-006
scalar ManetSim.node[194].nic.mac1609_4 	ReceivedUnicastPackets 	0
scalar ManetSim.node[194].nic.mac1609_4 	ReceivedBroadcasts 	4
scalar ManetSim.node[194].nic.mac1609_4 	SentPackets 	1
scalar ManetSim.node[194].nic.mac1609_4 	SNIRLostPackets 	0
scalar ManetSim.node[194].nic.mac1609_4 	RXTXLostPackets 	0
scalar ManetSim.node[194].nic.mac1609_4 	TotalLostPackets 	0
scalar ManetSim.node[194].nic.mac1609_4 	DroppedPacketsInMac 	0
scalar ManetSim.node[194].nic.mac1609_4 	TooLittleTime 	0
scalar ManetSim.node[194].nic.mac1609_4 	TimesIntoBackoff 	1
scalar ManetSim.node[194].nic.mac1609_4 	SlotsBackoff 	6
scalar ManetSim.node[194].nic.mac1609_4 	NumInternalContention 	0
scalar ManetSim.node[194].nic.mac1609_4 	totalBusyTime 	0.000562666665
scalar ManetSim.node[194].mobility 	startTime 	582.1
scalar ManetSim.node[194].mobility 	totalTime 	117.8
scalar ManetSim.node[194].mobility 	stopTime 	699.9
scalar ManetSim.node[194].mobility 	minSpeed 	0
scalar ManetSim.node[194].mobility 	maxSpeed 	13.998764755626
scalar ManetSim.node[194].mobility 	totalDistance 	743.02624846559
scalar ManetSim.node[194].mobility 	totalCO2Emission 	272.51330375988
scalar ManetSim.node[35].nic.phy80211p 	busyTime 	1.51087199731e-005
scalar ManetSim.node[35].nic.mac1609_4 	ReceivedUnicastPackets 	0
scalar ManetSim.node[35].nic.mac1609_4 	ReceivedBroadcasts 	80
scalar ManetSim.node[35].nic.mac1609_4 	SentPackets 	1
scalar ManetSim.node[35].nic.mac1609_4 	SNIRLostPackets 	0
scalar ManetSim.node[35].nic.mac1609_4 	RXTXLostPackets 	1
scalar ManetSim.node[35].nic.mac1609_4 	TotalLostPackets 	1
scalar ManetSim.node[35].nic.mac1609_4 	DroppedPacketsInMac 	0
scalar ManetSim.node[35].nic.mac1609_4 	TooLittleTime 	0
scalar ManetSim.node[35].nic.mac1609_4 	TimesIntoBackoff 	1
scalar ManetSim.node[35].nic.mac1609_4 	SlotsBackoff 	3
scalar ManetSim.node[35].nic.mac1609_4 	NumInternalContention 	0
scalar ManetSim.node[35].nic.mac1609_4 	totalBusyTime 	0.009100349031
scalar ManetSim.node[35].mobility 	startTime 	105.1
scalar ManetSim.node[35].mobility 	totalTime 	594.8
scalar ManetSim.node[35].mobility 	stopTime 	699.9
scalar ManetSim.node[35].mobility 	minSpeed 	0
scalar ManetSim.node[35].mobility 	maxSpeed 	13.889564449163
scalar ManetSim.node[35].mobility 	totalDistance 	1463.163109123
scalar ManetSim.node[35].mobility 	totalCO2Emission 	847.78595025449
scalar ManetSim.node[36].nic.phy80211p 	busyTime 	1.5375126686381e-005
scalar ManetSim.node[36].nic.mac1609_4 	ReceivedUnicastPackets 	0
scalar ManetSim.node[36].nic.mac1609_4 	ReceivedBroadcasts 	80
scalar ManetSim.node[36].nic.mac1609_4 	SentPackets 	1
scalar ManetSim.node[36].nic.mac1609_4 	SNIRLostPackets 	1
scalar ManetSim.node[36].nic.mac1609_4 	RXTXLostPackets 	0
scalar ManetSim.node[36].nic.mac1609_4 	TotalLostPackets 	1
scalar ManetSim.node[36].nic.mac1609_4 	DroppedPacketsInMac 	0
scalar ManetSim.node[36].nic.mac1609_4 	TooLittleTime 	0
scalar ManetSim.node[36].nic.mac1609_4 	TimesIntoBackoff 	1
scalar ManetSim.node[36].nic.mac1609_4 	SlotsBackoff 	2
scalar ManetSim.node[36].nic.mac1609_4 	NumInternalContention 	0
scalar ManetSim.node[36].nic.mac1609_4 	totalBusyTime 	0.009100331345
scalar ManetSim.node[36].mobility 	startTime 	108.1
scalar ManetSim.node[36].mobility 	totalTime 	591.8
scalar ManetSim.node[36].mobility 	stopTime 	699.9
scalar ManetSim.node[36].mobility 	minSpeed 	0
scalar ManetSim.node[36].mobility 	maxSpeed 	13.88919888196
scalar ManetSim.node[36].mobility 	totalDistance 	1415.0937145739
scalar ManetSim.node[36].mobility 	totalCO2Emission 	841.00226967157
scalar ManetSim.node[37].nic.phy80211p 	busyTime 	1.5453464628057e-005
scalar ManetSim.node[37].nic.mac1609_4 	ReceivedUnicastPackets 	0
scalar ManetSim.node[37].nic.mac1609_4 	ReceivedBroadcasts 	80
scalar ManetSim.node[37].nic.mac1609_4 	SentPackets 	1
scalar ManetSim.node[37].nic.mac1609_4 	SNIRLostPackets 	1
scalar ManetSim.node[37].nic.mac1609_4 	RXTXLostPackets 	0
scalar ManetSim.node[37].nic.mac1609_4 	TotalLostPackets 	1
scalar ManetSim.node[37].nic.mac1609_4 	DroppedPacketsInMac 	0
scalar ManetSim.node[37].nic.mac1609_4 	TooLittleTime 	0
scalar ManetSim.node[37].nic.mac1609_4 	TimesIntoBackoff 	1
scalar ManetSim.node[37].nic.mac1609_4 	SlotsBackoff 	3
scalar ManetSim.node[37].nic.mac1609_4 	NumInternalContention 	0
scalar ManetSim.node[37].nic.mac1609_4 	totalBusyTime 	0.009100306071
scalar ManetSim.node[37].mobility 	startTime 	111.1
scalar ManetSim.node[37].mobility 	totalTime 	588.8
scalar ManetSim.node[37].mobility 	stopTime 	699.9
scalar ManetSim.node[37].mobility 	minSpeed 	0
scalar ManetSim.node[37].mobility 	maxSpeed 	13.889877881641
scalar ManetSim.node[37].mobility 	totalDistance 	1374.4827918766
scalar ManetSim.node[37].mobility 	totalCO2Emission 	830.44193184362
scalar ManetSim.node[38].nic.phy80211p 	busyTime 	1.5724365493342e-005
scalar ManetSim.node[38].nic.mac1609_4 	ReceivedUnicastPackets 	0
scalar ManetSim.node[38].nic.mac1609_4 	ReceivedBroadcasts 	78
scalar ManetSim.node[38].nic.mac1609_4 	SentPackets 	1
scalar ManetSim.node[38].nic.mac1609_4 	SNIRLostPackets 	4
scalar ManetSim.node[38].nic.mac1609_4 	RXTXLostPackets 	0
scalar ManetSim.node[38].nic.mac1609_4 	TotalLostPackets 	4
scalar ManetSim.node[38].nic.mac1609_4 	DroppedPacketsInMac 	0
scalar ManetSim.node[38].nic.mac1609_4 	TooLittleTime 	0
scalar ManetSim.node[38].nic.mac1609_4 	TimesIntoBackoff 	1
scalar ManetSim.node[38].nic.mac1609_4 	SlotsBackoff 	1
scalar ManetSim.node[38].nic.mac1609_4 	NumInternalContention 	0
scalar ManetSim.node[38].nic.mac1609_4 	totalBusyTime 	0.00910074743
scalar ManetSim.node[38].mobility 	startTime 	114.1
scalar ManetSim.node[38].mobility 	totalTime 	585.8
scalar ManetSim.node[38].mobility 	stopTime 	699.9
scalar ManetSim.node[38].mobility 	minSpeed 	0
scalar ManetSim.node[38].mobility 	maxSpeed 	13.889568861418
scalar ManetSim.node[38].mobility 	totalDistance 	1333.5691239507
scalar ManetSim.node[38].mobility 	totalCO2Emission 	825.63801749147
scalar ManetSim.node[84].nic.phy80211p 	busyTime 	5.518832795891e-006
scalar ManetSim.node[84].nic.mac1609_4 	ReceivedUnicastPackets 	0
scalar ManetSim.node[84].nic.mac1609_4 	ReceivedBroadcasts 	20
scalar ManetSim.node[84].nic.mac1609_4 	SentPackets 	1
scalar ManetSim.node[84].nic.mac1609_4 	SNIRLostPackets 	2
scalar ManetSim.node[84].nic.mac1609_4 	RXTXLostPackets 	1
scalar ManetSim.node[84].nic.mac1609_4 	TotalLostPackets 	3
scalar ManetSim.node[84].nic.mac1609_4 	DroppedPacketsInMac 	0
scalar ManetSim.node[84].nic.mac1609_4 	TooLittleTime 	0
scalar ManetSim.node[84].nic.mac1609_4 	TimesIntoBackoff 	1
scalar ManetSim.node[84].nic.mac1609_4 	SlotsBackoff 	5
scalar ManetSim.node[84].nic.mac1609_4 	NumInternalContention 	0
scalar ManetSim.node[84].nic.mac1609_4 	totalBusyTime 	0.002545525195
scalar ManetSim.node[84].mobility 	startTime 	252.1
scalar ManetSim.node[84].mobility 	totalTime 	447.8
scalar ManetSim.node[84].mobility 	stopTime 	699.9
scalar ManetSim.node[84].mobility 	minSpeed 	0
scalar ManetSim.node[84].mobility 	maxSpeed 	13.999904391733
scalar ManetSim.node[84].mobility 	totalDistance 	3986.6475077033
scalar ManetSim.node[84].mobility 	totalCO2Emission 	1021.304423119
scalar ManetSim.node[85].nic.phy80211p 	busyTime 	6.5662469829137e-006
scalar ManetSim.node[85].nic.mac1609_4 	ReceivedUnicastPackets 	0
scalar ManetSim.node[85].nic.mac1609_4 	ReceivedBroadcasts 	21
scalar ManetSim.node[85].nic.mac1609_4 	SentPackets 	1
scalar ManetSim.node[85].nic.mac1609_4 	SNIRLostPackets 	5
scalar ManetSim.node[85].nic.mac1609_4 	RXTXLostPackets 	0
scalar ManetSim.node[85].nic.mac1609_4 	TotalLostPackets 	5
scalar ManetSim.node[85].nic.mac1609_4 	DroppedPacketsInMac 	0
scalar ManetSim.node[85].nic.mac1609_4 	TooLittleTime 	0
scalar ManetSim.node[85].nic.mac1609_4 	TimesIntoBackoff 	1
scalar ManetSim.node[85].nic.mac1609_4 	SlotsBackoff 	6
scalar ManetSim.node[85].nic.mac1609_4 	NumInternalContention 	0
scalar ManetSim.node[85].nic.mac1609_4 	totalBusyTime 	0.002773464252
scalar ManetSim.node[85].mobility 	startTime 	255.1
scalar ManetSim.node[85].mobility 	totalTime 	444.8
scalar ManetSim.node[85].mobility 	stopTime 	699.9
scalar ManetSim.node[85].mobility 	minSpeed 	0
scalar ManetSim.node[85].mobility 	maxSpeed 	13.999997238773
scalar ManetSim.node[85].mobility 	totalDistance 	3979.2521819374
scalar ManetSim.node[85].mobility 	totalCO2Emission 	1021.2353775158
scalar ManetSim.node[86].nic.phy80211p 	busyTime 	6.6108344454504e-006
scalar ManetSim.node[86].nic.mac1609_4 	ReceivedUnicastPackets 	0
scalar ManetSim.node[86].nic.mac1609_4 	ReceivedBroadcasts 	20
scalar ManetSim.node[86].nic.mac1609_4 	SentPackets 	1
scalar ManetSim.node[86].nic.mac1609_4 	SNIRLostPackets 	6
scalar ManetSim.node[86].nic.mac1609_4 	RXTXLostPackets 	0
scalar ManetSim.node[86].nic.mac1609_4 	TotalLostPackets 	6
scalar ManetSim.node[86].nic.mac1609_4 	DroppedPacketsInMac 	0
scalar ManetSim.node[86].nic.mac1609_4 	TooLittleTime 	0
scalar ManetSim.node[86].nic.mac1609_4 	TimesIntoBackoff 	2
scalar ManetSim.node[86].nic.mac1609_4 	SlotsBackoff 	9
scalar ManetSim.node[86].nic.mac1609_4 	NumInternalContention 	0
scalar ManetSim.node[86].nic.mac1609_4 	totalBusyTime 	0.002773235354
scalar ManetSim.node[86].mobility 	startTime 	258.1
scalar ManetSim.node[86].mobility 	totalTime 	441.8
scalar ManetSim.node[86].mobility 	stopTime 	699.9
scalar ManetSim.node[86].mobility 	minSpeed 	0
scalar ManetSim.node[86].mobility 	maxSpeed 	13.999993793217
scalar ManetSim.node[86].mobility 	totalDistance 	3971.5496849846
scalar ManetSim.node[86].mobility 	totalCO2Emission 	1012.229053425
scalar ManetSim.node[87].nic.phy80211p 	busyTime 	7.4240352256153e-006
scalar ManetSim.node[87].nic.mac1609_4 	ReceivedUnicastPackets 	0
scalar ManetSim.node[87].nic.mac1609_4 	ReceivedBroadcasts 	21
scalar ManetSim.node[87].nic.mac1609_4 	SentPackets 	1
scalar ManetSim.node[87].nic.mac1609_4 	SNIRLostPackets 	8
scalar ManetSim.node[87].nic.mac1609_4 	RXTXLostPackets 	0
scalar ManetSim.node[87].nic.mac1609_4 	TotalLostPackets 	8
scalar ManetSim.node[87].nic.mac1609_4 	DroppedPacketsInMac 	0
scalar ManetSim.node[87].nic.mac1609_4 	TooLittleTime 	0
scalar ManetSim.node[87].nic.mac1609_4 	TimesIntoBackoff 	1
scalar ManetSim.node[87].nic.mac1609_4 	SlotsBackoff 	6
scalar ManetSim.node[87].nic.mac1609_4 	NumInternalContention 	0
scalar ManetSim.node[87].nic.mac1609_4 	totalBusyTime 	0.003049547933
scalar ManetSim.node[87].mobility 	startTime 	261.1
scalar ManetSim.node[87].mobility 	totalTime 	438.8
scalar ManetSim.node[87].mobility 	stopTime 	699.9
scalar ManetSim.node[87].mobility 	minSpeed 	0
scalar ManetSim.node[87].mobility 	maxSpeed 	13.999875839127
scalar ManetSim.node[87].mobility 	totalDistance 	3963.9628388953
scalar ManetSim.node[87].mobility 	totalCO2Emission 	1012.3685204483
